95
CSD_code = YEJFOI | q = 0 | S = 0 | Stoichiometry = C37H44B10OP2Pt | MND = 6
Pt        5.93233717204720    5.08701189173013   10.94474678721713
P         7.31216027734092    3.81211284211590    9.44502139964257
P         4.51015502116006    3.22026786721203   11.70206792301814
O         3.08624339219331    5.29370565854643   10.70934407414612
C         1.94743381539984    5.43895488176685    9.90098991926383
H         1.60605544231638    4.44496852529305    9.60268626821274
H         2.17548909824198    6.02892325535776    9.00805879791061
H         1.15357968826174    5.94612859399958   10.45736431885369
C         7.55482514560265    4.72076009085546    7.87703145657362
C         6.40820282251548    5.23620894887183    7.27463918861296
H         5.44399477612999    5.06462441024202    7.73867804066851
C         6.48952288190872    5.97136829521339    6.10848229420907
H         5.59337233009089    6.36631924730862    5.65280286835166
C         7.72742087754045    6.21312479853977    5.53417339591741
H         7.79808706602516    6.79393901155653    4.62683167491007
C         8.87289917087860    5.71921602157150    6.13404298142127
H         9.83952030809420    5.91687051307521    5.69438825505326
C         8.79097919683269    4.97679258905243    7.29998278924391
H         9.69282957482154    4.60851473800518    7.76600418406814
C         6.89598300541923    2.14586480717263    8.79534697728071
C         6.27737565063825    1.94209130983163    7.56609528372652
H         6.10629323350771    2.77645233788218    6.90070255909953
C         5.89176374343128    0.67195310848301    7.17721957780498
H         5.42082691598156    0.52620026444421    6.21575800840082
C         6.10750719796361   -0.41035485944292    8.01251663411833
H         5.79705685659400   -1.39938810912926    7.71007543799222
C         6.73422307338880   -0.21892441555489    9.23302397304590
H         6.92034976789740   -1.05874550961170    9.88618987868082
C         7.12640132991539    1.04716151369049    9.62037794364447
H         7.63355625967292    1.18975871453936   10.56350857122036
C         9.01941024343451    3.48078194324080   10.00479677747405
C         9.85999380068417    2.59699995482702    9.33257527218752
H         9.50881702347825    2.08698618631376    8.44578023790730
C        11.14040617726297    2.36574965235362    9.79976329919420
H        11.78806954363803    1.68019982887140    9.27246312993330
C        11.59381145903647    3.01061461492713   10.93988888417137
H        12.59439735688983    2.82491571815517   11.30179076513559
C        10.76278218545293    3.89153083565326   11.61092854832350
H        11.11370651406515    4.39790265209402   12.49785610201825
C         9.48047776517460    4.12496148745652   11.14620447353066
H         8.82950555980434    4.81812494580986   11.66004832041488
C         3.49794133135286    2.19428934234309   10.57698750840627
C         3.59061380338812    2.45790859248837    9.21709474173511
H         4.23233557674294    3.26349117992484    8.88636718952272
C         2.87053143530670    1.71619568348211    8.29883331661319
H         2.94921394546464    1.93426335567341    7.24383270269691
C         2.04543074273194    0.69519919386720    8.73760526756624
H         1.48238445491579    0.10912560649872    8.02621190422508
C         1.93167432669973    0.43436734192074   10.09404427393528
H         1.27774752205190   -0.35421633352408   10.43804146362656
C         2.64696167675437    1.18208681545230   11.01179221877973
H         2.53151392126897    0.99031211036057   12.06975960404142
C         5.71463446444085    2.00546700315398   12.37223381439620
C         5.56981299909686    0.62502435532495   12.38598414499878
H         4.68865314905685    0.16418192239811   11.96560370726593
C         6.56919877217830   -0.17274978755489   12.91727947423284
H         6.44820360609816   -1.24667804367708   12.92536342252815
C         7.72258196221373    0.39539144354735   13.43211592547823
H         8.50115749097742   -0.23394200578785   13.83759620102976
C         7.87710171355675    1.77261457626800   13.41976810434770
H         8.77749892232508    2.22193770444672   13.81216737008223
C         6.87774957874494    2.56913368667299   12.89350963340503
H         6.98762437546478    3.65015223620326   12.87927077034181
C         3.40595504151189    3.34161126384383   13.15225864415490
C         3.94026003553826    3.35135985603762   14.43752100481833
H         5.00317188372418    3.21953698508756   14.57929345836175
C         3.12052170498016    3.52878386488521   15.53632432081007
H         3.54753600623506    3.53043899403626   16.52856716075345
C         1.75776512542484    3.70914724447021   15.36799149230127
H         1.11835595510807    3.84971895687068   16.22682143815913
C         1.22003677233291    3.71407174606430   14.09170546460598
H         0.15821035209936    3.85974658914198   13.95328304353968
C         2.03756398440032    3.53651714051319   12.99144876896019
H         1.61068482735770    3.54627805790626   12.00005709946532
B         5.54168616304369    8.19136769546869   12.43405450551098
H         5.52912127956942    8.76455464036437   13.46544804910061
B         6.70551174448101    6.90571917858456   12.11137638846160
H         7.52527551225664    6.56136395759343   12.89847029542485
B         5.00438282420344    6.48718826962532   12.39158489856900
H         4.67002673278698    5.93607318709648   13.38913661416128
B         3.99678054433163    7.82504562205522   11.65047412221754
H         2.98673611773373    8.20286697501414   12.13487076619651
B         5.15900690305350    8.95062381083728   10.86547869013314
H         4.86532981331325   10.09276284016121   10.81488249214778
B         6.83510875315216    8.42896149517986   11.24896808819410
H         7.72522374942759    9.17965481760620   11.43822677777060
B         3.94449842969259    6.30709662912069   11.01691136736202
B         4.18281149369450    7.86143910467332    9.79557607703932
H         3.30893988689264    8.50225126234788    9.30420390902243
B         6.10727459286300    8.29157725001634    9.62239724502863
H         6.46638184660538    8.88126488840513    8.66494729831155
B         7.14267564894975    6.90035341039454   10.40013001894010
H         8.23332102936488    6.65041380397135    9.99723782571460
H         4.33995678683156    6.91399761938270    9.07590619772617
H         6.39809996749601    7.03640770143450    9.36773644517709

