41
CSD_code = YEJGEZ | q = 0 | S = 0 | Stoichiometry = C9H21B9CoN | MND = 10
Co       -0.29618105818498    2.83889192505956    9.13457574523256
N         0.03825461665494    0.90333661876251    9.99868828236854
C        -1.50771448679385    3.89152780220186   10.38560057179748
C         0.00081585069588    4.28532082149652   10.51368432625982
H         0.55107927675499    3.83312161625255   11.33742058958819
C         1.18333840365813    1.38415443770692    9.45010242176743
C         1.01606823722331    1.61646064114166    8.06473427611023
H         1.78142721966378    1.89178554627781    7.35992655477418
C        -0.32267431605473    1.25495570835069    7.77425212506308
H        -0.78152416318656    1.19164982181169    6.80266789170769
C        -0.87745169794759    0.81562545129551    8.99993774973141
C         2.44682917591480    1.47302772292430   10.24233071484542
H         2.22142974252290    1.50071116797327   11.30547359764380
H         3.02135399469691    2.35452205605482    9.96657717208025
H         3.05999419955283    0.59197794287000   10.04884811326050
C        -2.19964712984706    0.15204330292355    9.20625190262764
H        -2.16515571316285   -0.85579639960940    8.79104972746811
H        -2.99596086815639    0.69707156806333    8.70491336421933
H        -2.41973153587721    0.07607747498034   10.26706083046604
C        -2.08870574124206    2.92799112439177   11.41071235374299
H        -1.41429740543215    2.09717517390236   11.61899870926308
H        -3.02851435668253    2.51765873574216   11.04636280081845
H        -2.29476423138620    3.43424021437104   12.35408155168260
B        -2.00311598836630    3.91699109529458    8.77576619597228
H        -2.87049945554038    3.19521109745425    8.43015301903057
B        -2.44443999358688    5.23459579902195    9.88996517285912
H        -3.55958485193761    5.29069190131225   10.25814180679416
B        -1.13343216119860    5.47178428731033   11.01741049124080
H        -1.27434384148211    5.61916295624827   12.17476286455845
B         0.72477899621095    4.61346048854576    9.03360278957294
H         1.87427491004205    4.39625628000666    8.88087161044566
B        -0.58357354139350    4.42347190130027    7.83498681872916
H        -0.39366512883831    4.09778444053057    6.71919141693510
B        -1.84766981272780    5.59893413629475    8.26140184301677
H        -2.53853513256935    6.04452284775311    7.41989168074692
B        -1.28688533313829    6.56864181723521    9.64430136387688
H        -1.58740495644767    7.69575667110616    9.78989016544203
B         0.29773285940114    5.92889006399015   10.14123160922225
H         1.17541611733239    6.47477391247758   10.70158599503048
B        -0.11013247016504    6.03668588078440    8.41726630440019
H         0.42131177102095    6.78995394838902    7.68652747960748

