84
CSD_code = YEJGAW | q = 0 | S = 0 | Stoichiometry = C23H51MoO3P3Si3 | MND = 6
Mo        1.75981408771557    4.41576608746909    3.30218881143697
P         2.61638162511511    3.77733532991673    5.48118142557315
P         0.16444705283505    5.89217177184453    4.38013137589909
P         0.14363976310965    2.61146055946703    3.44478107331214
Si        1.24906096271319    2.95760914982831    7.10866914318420
Si       -0.75340310037338    5.37887291752128    6.40063672943294
Si       -1.29468124725134    2.43872459297907    5.20339880501152
O         1.12507854459264    4.93647694315625    0.34449144900204
O         4.07194924571775    3.02108091798373    1.84234652153580
O         3.62465461483995    6.75034143072250    2.59789622430917
C         1.24929227931837    4.77402757731750    1.47676524114634
C         3.17357981918994    3.43528968911125    2.42982367064952
C         2.94853617549569    5.89952061217593    2.97595095639641
C        -0.59128958400016    3.46058474141515    6.70767588997077
C        -1.44108888773046    3.11801107019358    7.93781257614868
H        -1.29784120859115    2.08423878195670    8.23952305092649
H        -2.49923852831142    3.25942244367569    7.73653860721575
H        -1.17898061983564    3.74746587326624    8.78358878904674
C         3.86652458260424    2.42885294591719    5.31692155860258
H         3.32253839363026    1.56382283053802    4.92433665260884
H         4.54980048308801    2.75367204887276    4.52468320538282
C         4.66313197784283    2.03305347540166    6.55410457131326
H         5.24239190399482    1.13516058807080    6.34254643750909
H         4.01018061078215    1.82653647626824    7.39718751957546
H         5.36048819525348    2.81524609239348    6.84254505118888
C         3.58030706304521    5.00037800410062    6.48033322720792
H         2.89675216480472    5.82359359973343    6.70805940287311
H         3.88075692863524    4.53892104956053    7.42441266364695
C         4.79742278637373    5.54232092890005    5.74459851328017
H         5.26567119202451    6.33938478277733    6.32130230891682
H         4.50853735884268    5.94382608156663    4.77622674250740
H         5.53786351606650    4.76313856083029    5.57853121142562
C         1.35576457164447    1.04622697551288    7.29445533762397
H         0.43615634457968    0.65803035797248    7.71672195340764
H         2.15500534296470    0.76473134289386    7.97223551017307
H         1.53290179509808    0.53452492157852    6.35565597660584
C         1.77062011052575    3.53233802695294    8.86614814763881
H         1.03172929841334    3.20908382871149    9.59106885602698
H         1.88562599336027    4.60359426316480    8.96359022332511
H         2.71443277515889    3.07569087435234    9.14944420542906
C        -1.36692092015357    6.41617964615856    3.48356531801712
H        -1.96217472889222    5.51240286124271    3.32467575917508
H        -1.94196942981809    7.09104270102171    4.12268176599491
C        -1.07918234618619    7.07494914106118    2.14231350015122
H        -2.01050789660665    7.30460818509134    1.62532163649894
H        -0.49161755133774    6.41296937771895    1.51131602797645
H        -0.52286762220091    8.00100850352760    2.26891997136972
C         0.92904774170001    7.53897297536212    4.71540211965670
H         1.72172118494062    7.35473334110377    5.44767757584437
H         1.42642922893265    7.83072178209004    3.78414728965773
C         0.02429982630517    8.66930745102083    5.19072332096165
H         0.63342446715297    9.51587547624232    5.50488480814536
H        -0.58955181055736    8.36031950565600    6.03212695020015
H        -0.63108291339506    9.01203266891181    4.39415166985032
C        -2.57739255418272    5.96186160464531    6.55556483664516
H        -2.99635898021394    5.60739508235647    7.49078691040570
H        -3.21808172274800    5.62023171248406    5.75364213062308
H        -2.62944329077236    7.04647677224582    6.57538397186909
C         0.07051902639358    6.32910232447489    7.85476302180672
H        -0.09669843363242    5.80391776161605    8.78827787761882
H        -0.36025817464493    7.31840803940273    7.96948338213999
H         1.13970539146621    6.45476869147047    7.72998377496256
C         0.70574060674621    0.85134676067735    3.35199581567898
H         1.31614714432964    0.66923650570304    4.24128181351587
H        -0.16682835889585    0.19507541906019    3.40156677903096
C         1.52316446409503    0.55057230863798    2.10425598118621
H         1.87752932092296   -0.47969358435801    2.12197713473603
H         2.38641556307230    1.20866627459015    2.04680513267567
H         0.93158768780058    0.69182556654623    1.20239477218004
C        -1.01330938194160    2.66518111314097    2.00676091280105
H        -1.58214057148052    3.59380400965164    2.11840483736989
H        -0.38139823082268    2.79113856957118    1.12096025253228
C        -1.95962507957763    1.48872673324995    1.80071608462533
H        -2.68896576656886    1.73791248683274    1.03106141055622
H        -2.49672014437273    1.24629184330249    2.71349213226605
H        -1.42224073083289    0.60299397432315    1.47172500834438
C        -1.64104034477973    0.61305362646778    5.69212662074527
H        -2.22421807812067    0.58239500138445    6.60587202231113
H        -0.74840951479692    0.02164461886646    5.84683872746136
H        -2.22953994439292    0.12014975706157    4.92384866331148
C        -3.06769486049447    3.05554082902532    4.78685741004897
H        -3.59405908997357    3.32335542015174    5.69593259002550
H        -3.64930175762549    2.27643829649756    4.30510376094784
H        -3.07714580713500    3.91773031861223    4.13051890159478

