47
CSD_code = YEJGOJ | q = 0 | S = 0 | Stoichiometry = C22H16N6NiS2 | MND = 6
Ni        3.18814257075599    8.20923244766093    6.41697181200860
S         6.54754963647273    9.48374210475293    3.89320893540609
C         5.29306933339422    9.35901928909126    4.84891101771052
N         4.40132202275938    9.33730474041356    5.61966593254131
S        -0.49359177606491   10.39551094511294    5.45562809712807
C         0.86362441258350    9.58306450573730    5.45812685964242
N         1.83697242349541    8.92162278708096    5.39324950445641
N         2.69325770057208    9.67239989834946    8.13817469011450
N         1.83005225832563    7.23779364277681    7.43032392305426
C         3.05262216230124   10.94650789870783    8.18710833810418
H         4.07467798467400   11.15762999784396    7.90109824053884
C         2.18629886771399   11.96220880516513    8.56369057211268
H         2.51981027440920   12.98762985312795    8.57108971504181
C         0.88839249990003   11.62992594519688    8.91554593326732
H         0.17875846525710   12.39295198277182    9.19777855075730
C         0.50524226693838   10.29943691641887    8.88003514206111
H        -0.50927148375599   10.01627956105180    9.11021765806843
C         1.43808267250573    9.34741912022980    8.48183871609642
C         1.10659155299170    7.92139763188059    8.33024310912909
C         0.09284302099844    7.30734051194453    9.06242305994435
H        -0.45339561445035    7.86957319982479    9.80277434754014
C        -0.19734885840169    5.97518035059467    8.83509889821526
H        -0.98619126343465    5.48402779532258    9.38467120558316
C         0.54238217827324    5.28728777332539    7.88563966699826
H         0.34277510180460    4.25072950363261    7.66553715713225
C         1.55015343425070    5.95973824327140    7.21546463069772
H         2.15029162112676    5.45858981583685    6.46657017071196
N         3.70587794594826    6.54370098892322    4.89706596850307
N         4.68530991344003    7.29345413569310    7.27567052835366
C         3.26325882139440    6.48098414634010    3.65001241128172
H         2.21016861807580    6.68950731936063    3.51431072299598
C         4.08278015256887    6.18355884215993    2.57112921265298
H         3.68021553157480    6.16203999017275    1.57098426832804
C         5.42378702502536    5.92949551784326    2.80729920942440
H         6.09819289293480    5.71290313316972    1.99235303275203
C         5.89511985787513    5.97986252512178    4.10864818808984
H         6.94163239480724    5.82598965549920    4.31781584457940
C         5.00331359305053    6.29425061972629    5.12882354695623
C         5.42100589068065    6.45418835833229    6.53101592237062
C         6.52218214510473    5.78740810691581    7.06379661182463
H         7.07876772843899    5.09396904010074    6.45385614085501
C         6.88460734591353    6.01765273234132    8.37759877892977
H         7.74018514000181    5.51806966123683    8.80650670628490
C         6.12905538920254    6.90460644519312    9.12886175734036
H         6.38154436479160    7.12464066035004   10.15381239017309
C         5.03522075896481    7.51179703423535    8.53577915900519
H         4.42046102480753    8.21127582016365    9.08797371523617

