121
CSD_code = YEJHON | q = 0 | S = 0 | Stoichiometry = C52H56Cl2N2O6P2Pd | MND = 4
Pd        3.76840652428614   11.66839425878235    2.21401877506227
Cl        5.12032241088712   10.03665642904292    3.10007837103132
P         3.11606015088406   10.28362441434298    0.56378097476947
C         3.96111340208045    8.70771720592569    0.25380709895149
C         3.78507973417869    7.69551615815972    1.19482049054319
H         3.13165319890238    7.86692012664805    2.04043443687121
C         4.80705720179136    8.50437738825842   -0.83018477865725
H         4.94978767773936    9.28865151020707   -1.56096745135445
C         4.44514816581048    6.49231210042148    1.05674353657452
H         4.27587596234642    5.70905816755036    1.78191215278138
C         5.45839962944383    7.29448602491645   -0.97263963752767
H         6.10754318650704    7.11091483179149   -1.81587852702092
C         5.29612682232887    6.28671976057627   -0.02720410071521
C         6.02217410609053    5.00052379042934   -0.24455310399064
O         6.26559399006978    4.56572178114022   -1.35381882959814
N         6.42417825203956    4.38220455763331    0.89114952453661
H         6.16284448667091    4.75408568888526    1.79153174365397
C         7.02987940696983    3.07291495726324    0.89874626417006
H         7.14297322018550    2.75240158821543   -0.14127240073106
C         8.40619939067215    3.10661611111594    1.60159483072594
H         8.25974224679897    3.56383561422730    2.58710835877257
C         9.36754680237275    3.98038306799090    0.78741137041750
H         9.69507510465336    3.42320974718217   -0.09224643284286
H         8.83079211839224    4.86390805846795    0.43720480891875
C         8.94879162957410    1.69227643535137    1.78508991030919
H         9.96404732767731    1.72511780186568    2.17060119630932
H         8.95475678981679    1.16214792525678    0.83538631703910
H         8.34170456608760    1.13037649398184    2.49105870323892
C        10.57999407657995    4.43548624408152    1.59078818169809
H        11.21241557052537    5.07573061380273    0.98074038340624
H        11.17681508374335    3.58965180014954    1.92253581043926
H        10.26698730312893    4.99983904570355    2.46653897777231
C         6.08370202074964    2.12447938522981    1.62669316048468
O         5.44966886953928    2.43741103232467    2.60182690657864
O         6.04643267183907    0.93111286052404    1.04326848732767
C         5.21479357306936   -0.07242968300046    1.61646649812165
H         4.50690528081242   -0.40046503528062    0.85592100114019
H         4.68270617510243    0.33287266174128    2.47885104765264
H         5.84538917092156   -0.90805975467819    1.92067871775362
C         1.39991952067616    9.74508624972315    0.79848909240744
C         0.69391787158658   10.29304624054043    1.86585269662945
H         1.17839093052973   11.03929788276263    2.50177331702933
C         0.80418551340907    8.77702177307173   -0.00562287449352
H         1.36957847928559    8.31838350475122   -0.80597146257448
C        -0.61045663427152    9.90051125943253    2.10723466979821
H        -1.16041842760076   10.32822383046074    2.93248568285097
C        -0.50130189630894    8.39260467743371    0.23861814457289
H        -0.96782091417433    7.64655913155936   -0.38807523690355
C        -1.20942456194315    8.95678227411299    1.28872982346691
H        -2.22883715018771    8.65187523444145    1.47385745860262
C         3.24626982414530   11.16574719516513   -1.01743703426572
C         4.33666281699399   12.03058439735167   -1.10755648758305
H         5.00543664950814   12.13305884642214   -0.24679861641111
C         2.35864729762183   11.05352421791720   -2.07740025275758
H         1.49639030981960   10.40765376774117   -1.99878956178711
C         4.54816603241707   12.76238333157207   -2.25915899743773
H         5.39035363985890   13.43514130535671   -2.32906125739070
C         2.57271017218101   11.79499409786126   -3.22735728089283
H         1.87889848986132   11.71596904183156   -4.05150304016034
C         3.66445602221244   12.64138383602818   -3.32131347164391
H         3.82150457177276   13.21933580381246   -4.22005075503361
Cl        2.42570581400829   13.29523907871670    1.30733466516556
P         4.40528114492630   13.06188132252533    3.86488565616790
C         3.51708149138393   14.60923267397586    4.19923181318965
C         3.63109124068509   15.62962280476712    3.25724468450644
H         4.26620500594615   15.48349874929897    2.39337265691639
C         2.69571137258007   14.78097946585155    5.30751496643417
H         2.60058817103202   13.99073571072872    6.03952329228713
C         2.93137994443563   16.80753315451578    3.41742668566918
H         3.04434194624385   17.59679972749623    2.68851865979366
C         2.00829041591160   15.96754433525630    5.47373633680006
H         1.37949308564054   16.12688754435373    6.33703932005912
C         2.10700517462794   16.98204762982512    4.52682193358730
C         1.34211724472766   18.23961521701837    4.77185975093535
O         1.11732001446192   18.65929680137195    5.89080561693361
N         0.93988212746209   18.88667008775660    3.65025575262122
H         0.99544289431560   18.42908607119439    2.75209341496730
C         0.12075594661952   20.07495416021746    3.69553555903603
H        -0.12139007157515   20.27826998288226    4.74313663832348
C         0.86767995960988   21.28269475162945    3.07978646926777
H         1.20106126852800   20.98492971849308    2.07888503097909
C         2.09530484203136   21.61125474247056    3.93694899832777
H         2.58178783299238   20.67960750553851    4.23091773080733
H         1.76717424507867   22.11145485029474    4.84980998917644
C        -0.06914010157941   22.48086025330713    2.95701893860966
H        -0.85655518969102   22.28781427294496    2.23226505966352
H         0.48042361372195   23.35775784278704    2.62618840619807
H        -0.53006637195107   22.70150010226437    3.91714783606151
C         3.11196328477144   22.48259569013738    3.20888347516147
H         3.97930771692648   22.65163807955422    3.84235559840005
H         2.69117807554937   23.45050648798556    2.94888621416526
H         3.44604001215393   21.99718594779997    2.29425451461633
C        -1.15386124538601   19.79642063047137    2.91088067173592
O        -1.17853363658854   19.18131364986703    1.87621151063858
O        -2.22801661293076   20.30820088829361    3.50498275241826
C        -3.47079940284431   20.11605101814332    2.83929000167921
H        -4.23261534759571   20.53604065741400    3.49028277410259
H        -3.64908523460099   19.05231603982641    2.67185552723775
H        -3.46608845296520   20.62740164866814    1.87452602436733
C         6.10398740052192   13.64690103918608    3.61540361518442
C         6.82564836424987   13.09373677273353    2.56129529205646
H         6.36156071040122   12.32062271564059    1.94296616057314
C         6.67387136157042   14.64595611569046    4.40006588618163
H         6.09648645994946   15.10452350785274    5.19186761555295
C         8.11972662619886   13.51466351279031    2.31245351854545
H         8.68209165048213   13.08323455813601    1.49754096234294
C         7.96908790720985   15.05922223206985    4.14809368544346
H         8.41561385195235   15.82982343130844    4.75946986799108
C         8.69265899357716   14.49165080716144    3.11040381612483
H         9.70392194421819   14.81919684531798    2.91925069378299
C         4.32660229918264   12.17243846670100    5.44541980893619
C         3.26375791729046   11.27618363642905    5.55361093884673
H         2.58450139816331   11.15322793063775    4.70408402475500
C         5.22707837901546   12.31302621570168    6.49110477065071
H         6.06729410247582   12.98570780227508    6.39817524441051
C         3.09274199107251   10.53987032272012    6.70909496572539
H         2.27223258960007    9.84248714432476    6.79319917870434
C         5.05349619509804   11.56740469146634    7.64511710890123
H         5.75701634176806   11.66906057635694    8.45851691097345
C         3.98922461024503   10.68871518947532    7.75690571847072
H         3.86352482706378   10.10783812344582    8.65867795801671

