32
CSD_code = YEJKIJ | q = 0 | S = 0 | Stoichiometry = C15H11Cl2N3Ni | MND = 5
Ni        2.61363043310417    7.67688603847690    6.37697813749520
Cl        3.14636407033082    7.49692607680774    4.41748158679882
Cl        1.15206463127660    5.95169065268177    6.44543894504927
N         4.28127869408303    6.77751808568171    7.17250100771843
N         2.23663441079869    7.94646429499811    8.10497846355901
N         1.31327125893182    9.25025134960168    6.13922733121146
C         5.22985642438698    6.09569193676558    6.54054533939787
H         5.38328440834521    6.34987153841735    5.49944186811876
C         5.98155445800030    5.11290588406888    7.16274492787365
H         6.74343606127930    4.58731358947507    6.61017514077664
C         5.73414548328165    4.82133104436413    8.49620533154776
H         6.29635956193227    4.05472025422937    9.00758389277724
C         4.74538700784682    5.52478337093774    9.16070197755444
H         4.51197441953579    5.30637219931584   10.19038135907144
C         4.03457647020232    6.50294501339564    8.47342643557488
C         2.94006659773323    7.29050022359870    9.03799515193886
C         2.60232326484960    7.39825245186836   10.38243186242753
H         3.17006184294791    6.87283095319609   11.13293403219909
C         1.52943832317892    8.19931014000972   10.74110556991499
H         1.24889093229536    8.29616673292782   11.77862011543665
C         0.82220686239406    8.88048758920240    9.76270119913890
H        -0.00604516574555    9.51741431190288   10.02719741095557
C         1.20477030992580    8.73559043399799    8.43386246318219
C         0.58698614505859    9.37435388942731    7.27314032067353
C        -0.64712798429704   10.01563556535975    7.28316625227082
H        -1.21917895426851   10.07843118601483    8.19488866214629
C        -1.13840167015064   10.54542679692045    6.10332152492957
H        -2.09568507632555   11.04400809257369    6.08556748562498
C        -0.38401350721662   10.41573124058221    4.94642288780077
H        -0.73187456249754   10.81494940345246    4.00744965354283
C         0.83347080756430    9.75865444340769    5.00991941959778
H         1.45079404123715    9.62698521641176    4.13036424373351

