59
CSD_code = YEJNIL | q = -1 | S = 0 | Stoichiometry = C32H16Cl2CoN8(1-) | MND = 6
Co        0.00000000106791    0.00000000063102    0.00000000034834
Cl       -1.76282810261877   -0.94557940307248   -1.00895079105409
N         1.61087774340591   -2.92331433318207   -0.07564143332932
N        -1.17688440470947    0.86844921635997    1.24116317180283
N        -1.28698388068708   -0.78626627741593    2.97872551048058
N         0.13199703450982   -1.50691142652384    1.17972550039877
C        -0.15014185276335   -2.91255689461805    2.97954159424952
C        -0.50944178208790   -3.52141256469660    4.17040451795560
C         0.01064700109226   -4.77728815139390    4.43010188584596
C         0.86538386206636   -5.40866002664837    3.52779925274500
C         1.22791668828142   -4.80446609475666    2.33671207486889
C         0.71004972645694   -3.54763492884505    2.07192089373349
C         0.86040098937015   -2.63258878428035    0.95928148142412
C        -1.74363054978211    2.09305228493699    1.08153504032938
C        -2.57278024825790    2.40993543097567    2.22608042996927
C        -3.35220823331790    3.50735247700051    2.55181515749282
C        -4.03033180595290    3.47606710944077    3.75777912510782
C        -3.93383915608547    2.38132085133030    4.61541846831172
C        -3.15631225753764    1.28231099802426    4.29475490468243
C        -2.47596235256888    1.30838795334854    3.08877575708762
C        -1.59227983144858    0.36626044107527    2.43350149749381
C        -0.48823581545539   -1.63735818520969    2.38167951133338
H        -1.17148976022426   -3.02457991257261    4.86222917830295
H        -0.24832894701300   -5.28336813338664    5.35016356357453
H         1.25012244563025   -6.39050483662842    3.76795180719249
H         1.88878206494528   -5.28472437332856    1.63219481647114
H        -3.42030099640679    4.34979824869009    1.88146769935374
H        -4.64902776398282    4.31535196498156    4.04505573470944
H        -4.47964041664043    2.39585830079287    5.54901243636814
H        -3.07519372518630    0.43046412215130    4.95166565618007
Cl        1.76282810437685    0.94557940391733    1.00895079383392
N        -1.61087774367630    2.92331433304450    0.07564143309967
N         1.17688440428022   -0.86844921663412   -1.24116317218268
N         1.28698388043025    0.78626627728858   -2.97872551070795
N        -0.13199703496499    1.50691142633443   -1.17972550076737
C         0.15014185263777    2.91255689457831   -2.97954159438423
C         0.50944178214689    3.52141256474336   -4.17040451796723
C        -0.01064700108058    4.77728815142127   -4.43010188586517
C        -0.86538386204950    5.40866002666918   -3.52779925275515
C        -1.22791668821646    4.80446609478608   -2.33671207486101
C        -0.71004972658403    3.54763492880131   -2.07192089386770
C        -0.86040098979179    2.63258878409242   -0.95928148173739
C         1.74363054938397   -2.09305228517489   -1.08153504063953
C         2.57278024814191   -2.40993543104887   -2.22608043010050
C         3.35220823338202   -3.50735247696652   -2.55181515748643
C         4.03033180598542   -3.47606710944102   -3.75777912511623
C         3.93383915611876   -2.38132085133849   -4.61541846832974
C         3.15631225761079   -1.28231099800381   -4.29475490469615
C         2.47596235245676   -1.30838795342345   -3.08877575722131
C         1.59227983106188   -0.36626044130101   -2.43350149781528
C         0.48823581506165    1.63735818502644   -2.38167951164866
H         1.17148976027925    3.02457991262696   -4.86222917832290
H         0.24832894700651    5.28336813341533   -5.35016356359855
H        -1.25012244562750    6.39050483664576   -3.76795180720047
H        -1.88878206487342    5.28472437335361   -1.63219481645340
H         3.42030099646808   -4.34979824864749   -1.88146769933515
H         4.64902776401092   -4.31535196498820   -4.04505573470897
H         4.47964041666346   -2.39585830081776   -5.54901243639106
H         3.07519372526170   -0.43046412213896   -4.95166565620368

