54
CSD_code = YEJQUC | q = 0 | S = 0 | Stoichiometry = C21H24Cl2N2O3RuS | MND = 9
Ru        4.47339690050138    2.70831610487854    5.23430766323675
Cl        6.51969322824452    3.07562256428652    4.12710758313302
Cl        4.10580080967192    0.87502315878096    3.79954033178373
S         3.41587400271441    4.23828512613102    3.65591768307532
O         5.26262177765519    3.72585690971958   -0.43310815544085
O         3.19498507577503    7.81281582010303   -0.42266372988088
O         6.85749649944853    1.49593435106501   -0.78000012022654
N         4.69175111490672    3.03245741904039    1.67095387680809
H         4.75592534102655    2.26481696092759    2.36046784491653
N         3.75144745792116    5.08914862640527    1.19647225214611
H         4.19914105890599    4.96946300625273    0.27855416899946
C         5.36973792572647    2.91027762051742    0.46949076368156
C         1.45948546312044    1.84594799664886    6.71504998338521
H         1.44208465454091    0.75248162687870    6.79127402866899
C         6.22116844478012    1.73531247766866    0.39222732290065
C         0.89023355094349    2.23494386894379    5.34839747191410
H        -0.11740760456699    1.84275033548429    5.23551764418611
H         1.51324913961321    1.82430026989975    4.55409419957532
H         0.85833103766893    3.31628884919814    5.23263280309096
C         6.57982486434322    0.77859126282558    1.31939700768524
H         6.25250227390872    0.70194962157290    2.33616893975832
C         0.61099939649107    2.42101108720545    7.85205562316422
H        -0.39710563036473    2.01758040594816    7.79984785165580
H         0.54792106221949    3.50436070397933    7.78185922009048
H         1.03697817885619    2.16078314845188    8.81926737508706
C         7.47674055161578   -0.08020353419283    0.66110563956394
H         7.96373789672659   -0.94041515015758    1.07134795480031
C         2.89464966096735    2.29893471685604    6.83766013327408
C         7.60231072695908    0.40861158890115   -0.61016621961219
H         8.17862416708555    0.06991443726727   -1.44948632831815
C         3.94575709543737    1.36510493244361    6.97712723997079
H         3.71259693437514    0.30416294267917    7.00284302660040
C         5.28337921161220    1.77792908073956    7.15059639375039
H         6.05945019647980    1.03773625317033    7.31555838677940
C         3.99331821537891    4.12488468653241    2.06768951577691
C         5.60861371904048    3.15756138619169    7.21575811964497
C         3.05693680867988    6.32196990806249    1.50425738532741
H         3.75717218577400    7.04081618446256    1.94589097481563
H         2.27265115969116    6.10036948982369    2.23239478271674
C         4.57562739951694    4.09643431791518    7.04260742450665
H         4.79226691971837    5.15564617622848    7.11929019328275
C         2.47132868738856    6.90091619310181    0.26253446545860
C         3.24438424847640    3.66843239626282    6.82352055355033
H         2.46633498313154    4.41901211737126    6.73185449438978
C         1.29424891923601    6.65995776229020   -0.38422575597475
H         0.52244324706267    5.98529886218257   -0.07635076322238
C         7.01935990326252    3.59288059762439    7.44810328199417
H         7.54842841526742    3.60900859081329    6.49139835143726
H         7.53764737456881    2.89854316348092    8.10641463088213
H         7.05538986069365    4.59425627923724    7.87118595046782
C         1.30045486435216    7.48292412378277   -1.53602536350390
H         0.53383612492312    7.55778420924712   -2.27902469892577
C         2.48050381102369    8.15849739537865   -1.50316004192546
H         2.90937068760680    8.88471156939627   -2.16442936073518

