64
CSD_code = YEJSOW | q = 0 | S = 0 | Stoichiometry = C31H29ClOsP2 | MND = 8
Os       13.24068068071792    3.62127434407799   15.65948176904980
Cl       14.18099667801614    5.74123933665132   15.11157166419540
P        13.05171495241872    3.59604660535537   13.40742439505631
C        12.27711384097452    2.17124985857416   12.56380879333899
C        11.95510018920217    1.03988496628901   13.30115188673406
C        11.40838610283355   -0.06875781275812   12.67923570113363
C        11.17830104417511   -0.04910121155662   11.31363914688342
C        11.49658715928709    1.07849555553963   10.57228045211886
C        12.04545053880274    2.18566779428169   11.19220921724922
C        12.26627519485687    4.97865973884242   12.52840932121330
C        12.96647586849207    6.05714708828829   12.00181864442847
C        12.27548048131796    7.11055789265508   11.42878737158280
C        10.89134760692062    7.10181982198391   11.38773884543608
C        10.18832510549055    6.03645743732576   11.92861229262565
C        10.87296989824226    4.98283340265375   12.50157308809458
C        14.76894963013108    3.47986765220616   12.70761866599051
C        15.45963304934829    2.31940251762768   13.41897020947789
P        15.17503464077738    2.52585173086978   15.25788552177189
C        15.24028517284492    0.83288899948081   15.93569439330919
C        14.70699395234466   -0.27452088568969   15.28588231329510
C        14.67328971172573   -1.50529465478466   15.91766097986872
C        15.15300508726511   -1.64210456281038   17.20944591741117
C        15.66478841616703   -0.53852628008195   17.87329343231374
C        15.70302821352060    0.69006377060825   17.24280213388906
C        16.82167012848910    3.12206351472245   15.79123997561733
C        16.94950045832769    4.33495892933042   16.45384769905856
C        18.19713754892241    4.76740709530078   16.87157022624985
C        19.31682130033344    3.98899812547591   16.63517906012452
C        19.19207252648905    2.77335892705428   15.97870735930233
C        17.95038354581270    2.33839988383912   15.55867040554935
C        11.33314250674299    4.32220517645093   16.68376543087339
C        11.17303680033631    2.95028693980594   16.36143844810037
C        12.14875596636847    2.21115091638376   17.07417289888493
C        12.88915598796084    3.13216548258200   17.87814566598420
C        12.37927415476779    4.42103949963670   17.64018502744626
H        12.14109636677929    1.04509275136731   14.36799497027300
H        11.15944943223777   -0.94655200627530   13.25822999303321
H        10.74825018668653   -0.91122674759297   10.82532512094114
H        11.31436964678983    1.09265885726021    9.50748821803466
H        12.28837741460698    3.07012850727094   10.61864975294651
H        14.04357106065752    6.08155050568297   12.05454992101985
H        12.82131894828821    7.94801422513041   11.01944023514233
H        10.35809990704351    7.92952090949132   10.94340757811647
H         9.10795361139955    6.03338497284804   11.90788767045718
H        10.33675524646076    4.14669688001949   12.93388653555226
H        14.74019223466649    3.33841502293551   11.62319896327294
H        15.27876715938451    4.41688671991281   12.95278010535356
H        16.53133481901618    2.30105366896534   13.20438300787238
H        15.01471455339819    1.37481737151079   13.09522931339146
H        14.31222376880644   -0.18267337980288   14.28455756805999
H        14.26565720674446   -2.36171643779577   15.39979710466002
H        15.12249436790174   -2.60376256056598   17.70005373008011
H        16.03151152073315   -0.63754709226320   18.88472130169404
H        16.10074952858216    1.55496657438295   17.75715773626233
H        16.07043750867770    4.94137304111839   16.61764469011676
H        18.29409074873109    5.71405294868145   17.38225189525233
H        20.28990048438097    4.32530148580525   16.96253779265002
H        20.06623251718280    2.16420243506347   15.79798222594196
H        17.84610510485733    1.38330101087969   15.05963420620306
H        10.66685859148400    5.12225568815289   16.39426549194408
H        10.37985819060529    2.53329091708535   15.75599853666775
H        12.20828505448053    1.13338961347237   17.14656276659696
H        13.61414735784384    2.86089353060152   18.63221128338818
H        12.67933332116643    5.32599299044303   18.14935393142104

