58
CSD_code = YEJSIR | q = 0 | S = 0 | Stoichiometry = C27H26Br2NiP2 | MND = 4
Ni        7.07995305326374    6.63237941416199   11.01440131815661
Br        8.60206723087407    5.74815828505572   12.40680252170343
Br        8.53370783277497    7.93784574216163    9.87988213247173
P         5.52034666303966    7.89485115266352   10.17966384387909
P         5.61157233078168    5.11359315214233   11.43855267928271
C         3.74694668226097    7.50747263415959   10.57819123285137
H         3.16754929833706    8.42020833851552   10.40802533973258
H         3.35870158015895    6.72836932470771    9.91820498233092
C         3.64035831597657    7.06121051750023   12.03512722614410
H         4.30585152220067    7.67883349403119   12.65063899790391
H         2.62252916296818    7.22223534074121   12.40218664176324
C         3.99995110202580    5.58795458963783   12.21640735887474
H         3.21470105085453    4.95052636609037   11.80082059823068
H         4.08363955033096    5.35858414841321   13.28303848856876
C         5.66930867680089    9.45232398120510   11.10978241768469
C         6.46570977425970    9.46131703942453   12.25037594009926
H         7.02994350469547    8.56759460391554   12.53091121492506
C         6.56678094402093   10.60405764366309   13.02178994278958
H         7.19245223963712   10.60613868234231   13.90132018722023
C         5.87059031160620   11.74319104573696   12.65403572478223
H         5.95349638986188   12.64076933030038   13.24835462161079
C         5.07118490956536   11.73769311271997   11.52101820176492
H         4.53147983390108   12.62906345405076   11.23627079781608
C         4.96328941744270   10.59561934577616   10.75017710250934
H         4.34551932347181   10.59188640500510    9.86178879822615
C         5.42438268673452    8.37969060683776    8.43444449969901
C         6.17207197400130    9.46002831255065    7.97207372190835
H         6.77567124300510   10.03208695273888    8.66141262789434
C         6.15537203058447    9.78774372671686    6.62948142284424
H         6.73719627841012   10.62657456705605    6.27901169857852
C         5.40781590892508    9.03704708028290    5.73702027727439
H         5.40214701249209    9.29028782320564    4.68736608085305
C         4.67518522600161    7.95272811832792    6.19059279324787
H         4.09902307522385    7.35724407132818    5.49727208608352
C         4.68471052009880    7.62013675775735    7.53244836190364
H         4.12196233180380    6.76074134481291    7.86890623696559
C         5.95089520040278    3.55914762657586   12.31779422923436
C         6.20808918126115    3.63402290472404   13.68487303400582
H         6.19930164987598    4.59454530215006   14.18268245766688
C         6.50797290219732    2.48995736246345   14.39705186187697
H         6.71096816266152    2.55355116161210   15.45534006391989
C         6.56399962234353    1.26630788721953   13.74887850780645
H         6.80382579633999    0.37205957984443   14.30424588538872
C         6.33061191120471    1.19188722028052   12.38636631078549
H         6.38944004070799    0.24117282184541   11.87724619841436
C         6.03222700253264    2.33493262735987   11.66572090261781
H         5.86928863348732    2.27282363420395   10.59862356759326
C         5.20118527599852    4.56584393704933    9.74495434336214
C         6.17318074502399    4.80758249862573    8.77550579650326
H         7.12089881937060    5.27286784636340    9.05893986135872
C         5.96143126923502    4.45089776707824    7.45686121933808
H         6.72029271195183    4.65074648008425    6.71587146232105
C         4.76896354966179    3.84632885656637    7.09510005868401
H         4.59038111242590    3.57447649096342    6.06567699160840
C         4.01857268337147    3.93257592545353    9.37687030742822
H         3.26448641621263    3.70306072414625   10.11731078223665
C         3.80482998300205    3.58219619478100    8.05575640209168
H         2.88048834234011    3.09822864488062    7.77503163718640

