79
CSD_code = YEJSUC | q = 0 | S = 0 | Stoichiometry = C36H39BrOsP2 | MND = 8
Os       -2.09749248312563   12.00081627460413   13.17849574797502
Br       -2.23285190180979    9.58860014525458   13.91870792488992
P         0.02424928848372   11.88079815622422   13.97324267491735
C         1.18055962704157   10.62480220344676   13.33438763453783
C         1.22409688524618    9.31765753752823   13.80793750197742
C         2.04493814427685    8.38744556721555   13.19508802821582
C         2.81632960848103    8.74392466281190   12.10205171328369
C         2.76638596325076   10.04098975731135   11.61593148921307
C         1.95003560559372   10.97358298482421   12.22507995358004
C         1.13251136028357   13.33738462521370   14.00513216202630
C         0.64538849534303   14.56934703536372   13.59353394948215
C         1.45153262619491   15.69385161568983   13.63534207274465
C         2.75395760893098   15.58899151749980   14.09279138967840
C         3.24715685651166   14.36045417591625   14.50635452682176
C         2.44267219066302   13.23743058444026   14.46320668327740
C        -0.07091283896949   11.53446287473579   15.80065889789821
C        -1.08501381359464   12.49077728212845   16.42620231864280
P        -2.55584833870970   12.72951371091827   15.27872739999428
C        -3.91383856228352   12.01341842061137   16.28125954846125
C        -4.81047208993949   11.12246157733040   15.70815705632988
C        -5.85316166476179   10.60350203877935   16.45599364982263
C        -6.00990061847691   10.97935912041438   17.77840599072730
C        -5.12813297511980   11.88336311159577   18.35160194148942
C        -4.08654339254406   12.40236653198991   17.60781748987648
C        -2.96652894389442   14.49832394023773   15.50984756969563
C        -4.30680911181403   14.88051122419436   15.51794868988980
C        -4.65898456445003   16.21691574292104   15.55582772675151
C        -3.67804494435813   17.19484494693598   15.57694358695235
C        -2.34316320523764   16.82591574058345   15.55776285621157
C        -1.98964866319680   15.48931173355779   15.51655420698712
C        -2.64736318414662   13.66368351015021   11.72348376901681
C        -2.58136515618237   15.16270462557596   11.76027330784680
C        -1.72162443409035   12.79423373726847   11.06104260003060
C        -0.46665476966905   13.22509877304788   10.36371457180885
C        -2.30395702962958   11.49678088948670   10.99591400100535
C        -1.77047740818736   10.31160725692035   10.24866337536419
C        -3.63849745523384   11.58344768733502   11.53489705765085
C        -4.67116095225776   10.50423595050859   11.42733779971579
C        -3.84614876209727   12.90628683647923   11.98918760153206
C        -5.15443974779077   13.50468965480489   12.41208357025496
H         0.60837383537725    9.01604720156973   14.64054091620256
H         2.07353739634796    7.37522597279234   13.56988165433982
H         3.45118381065942    8.01242354246517   11.62401993581523
H         3.36151146583498   10.32301875255979   10.75880163546023
H         1.91012636184330   11.98867771504616   11.85130222016181
H        -0.37736402265846   14.63097512266869   13.24824988863333
H         1.06411533434539   16.64987332029375   13.31250462240282
H         3.38762580006559   16.46307255552381   14.12660973696437
H         4.26416157648120   14.28013404719075   14.86204672511606
H         2.83004004014293   12.27605923166301   14.77336396586462
H        -0.41317072577489   10.50320026961048   15.92423951700303
H         0.91626514048075   11.63995428574531   16.26019791037480
H        -0.62148003263761   13.46583167164811   16.59702101165887
H        -1.43653125595240   12.10003194304994   17.38465410778639
H        -4.68065014204354   10.82304392071033   14.67853684796131
H        -6.54002265349725    9.90220845469830   16.00604611352521
H        -6.82039712608254   10.57255543613344   18.36521511785315
H        -5.25622017542483   12.18499580097799   19.38137781659060
H        -3.41137181136859   13.12433440375091   18.04880587555077
H        -5.07588776437389   14.12071715215586   15.50723624872023
H        -5.70264653591572   16.49673888632048   15.56623338227360
H        -3.95262142493469   18.23892898226208   15.60477929426442
H        -1.57210495369550   17.58294420444403   15.57017578643361
H        -0.94348214686446   15.22103682064931   15.48605692931236
H        -3.30044829638939   15.57577778409447   11.04879115073926
H        -1.59216654820156   15.52039361913845   11.48149356236911
H        -2.82902125396613   15.55749042501541   12.74702099393980
H         0.16330842710051   12.36820592568236   10.13373704321006
H         0.11434244305973   13.92921587394337   10.95909338981882
H        -0.72818839491529   13.71467941329017    9.42239241133228
H        -0.68091348482402   10.31291779090985   10.22804171437023
H        -2.13471989878493   10.32016970430398    9.21837988772946
H        -2.09552268770608    9.38266704477958   10.71565388165655
H        -4.96195171444837   10.38320262106824   10.38154367237753
H        -4.28862573647027    9.54664227334871   11.78099891694520
H        -5.56075039963716   10.75302014403348   12.00310399544401
H        -5.73061377807020   12.81897579230683   13.03246203887324
H        -4.99772812494045   14.42492990447020   12.97152204705657
H        -5.75066779088775   13.74078822782610   11.52697799728545

