80
CSD_code = YEJSIQ | q = 0 | S = 0 | Stoichiometry = C41H35BrOsP2 | MND = 8
Os        4.77807000016256    2.01599918578155    1.44311088088234
Br        7.22974446289183    1.91525360599072    1.90757892255017
C         4.93049519532844    2.61541557781475   -0.76758448928001
C         3.59744747485463    2.83494864759057   -0.34627863544518
C         3.03469370294596    1.58660529066340    0.01401460879205
C         4.01560225560662    0.58227679783489   -0.23295079498183
C         5.17254899492621    1.21615357851752   -0.71831269146604
P         4.24179599748263    0.59339519715512    3.14379599902404
C         4.82041810358015   -1.13950488641060    2.96329626203170
C         5.78814895686176   -1.47904995347727    2.02799077097599
C         6.22578855469524   -2.78806033031760    1.91910060489371
C         5.70060695315507   -3.76537168994964    2.74534705244407
C         4.74209767513817   -3.43036066702558    3.69016385555393
C         4.30712914906117   -2.12491812246848    3.80434272580437
C         4.70410646929159    0.76049918254891    4.91307394638251
C         6.04211672349178    1.03087179696190    5.18865908267426
C         6.49481807997596    1.06739752202967    6.49379892227916
C         5.61839012364974    0.83428472480687    7.53992278091246
C         4.28877806607299    0.55630958155605    7.27236682055650
C         3.83142393635452    0.51085026804885    5.96743708630281
C         2.43295730734655    0.36123131569287    3.20277049463635
C         1.64928232884992    1.31835902429455    3.84269722908620
C         0.27039053382614    1.23547883104178    3.80788288686244
C        -0.34418162525726    0.20712697171049    3.11107315482919
C         0.42715038051794   -0.73356520516698    2.44823097961182
C         1.80775707343626   -0.65671331085317    2.48960352667483
P         4.59831137177735    4.00558399017692    2.53324525035323
C         5.23237800139982    5.37214105360610    1.48004262038994
C         6.54018237628736    5.30711217969071    0.99971916225233
C         7.02746405266176    6.28240673580694    0.14931516313098
C         6.21221556930314    7.32560112591939   -0.25624717508477
C         4.90232975443138    7.37951936416194    0.18771213972163
C         4.41248865960876    6.41037005300593    1.04522809296499
C         5.43454748327320    4.24964819786491    4.14569645839363
C         6.75384982749787    4.67041710882190    4.26236820133309
C         7.33853026071920    4.78098261242696    5.51212985967900
C         6.61674739259487    4.47813934603253    6.65321192229360
C         5.30358566689424    4.05014382905594    6.54389587518291
C         4.72149018028639    3.92423859376579    5.29863849559158
C         2.94619499704233    4.67468626511129    2.95919332021958
C         2.82877841798611    5.81246137984818    3.75651894443500
C         1.58235469773032    6.33558933746115    4.04120391893401
C         0.44029289973686    5.73762128102610    3.52887143243272
C         0.55027323591422    4.61343044084259    2.72989457033105
C         1.79883393671622    4.08513038593000    2.44868551134101
H         5.58085429379672    3.35342281043828   -1.21603609549657
H         3.07480059001643    3.78157537294439   -0.38926395177770
H         1.99599158265802    1.39487872286499    0.24695923964570
H         3.84874012144595   -0.48470922104944   -0.18104775191569
H         6.06765353841890    0.72317404312709   -1.07154301267082
H         6.21288893046427   -0.72015854135639    1.38716927189920
H         6.98062539926938   -3.04143649141136    1.18945017731672
H         6.03959081345727   -4.78736374390248    2.65994197696846
H         4.33579064488559   -4.19060239355541    4.34166247888348
H         3.56350263245670   -1.86293102584478    4.54457583256249
H         6.73219648796656    1.21212618503322    4.37943175507414
H         7.53509753741559    1.27743284783283    6.69064970448685
H         5.96922050541843    0.86311432367685    8.56121695401465
H         3.60101334713273    0.36514460228890    8.08413195310057
H         2.79253637954718    0.27968749600472    5.77961839916528
H         2.13369833084589    2.13106334349505    4.36671445510934
H        -0.32499479128397    1.97834518546672    4.31894666589796
H        -1.42188726775229    0.14231625541186    3.07898889272897
H        -0.04919324149362   -1.52980817716041    1.89428574821527
H         2.40510599424919   -1.39392884147353    1.97077084684075
H         7.18055876135935    4.48045076853525    1.26894517497690
H         8.04544716218454    6.21769170458571   -0.20595018472602
H         6.59008993685331    8.08439712986197   -0.92560213523483
H         4.25161838126474    8.17826033311185   -0.13872406029363
H         3.38361080119537    6.46784656064871    1.36917601868855
H         7.32854223135179    4.91509965334887    3.38369369395731
H         8.36489721117522    5.10710471669253    5.59114113286993
H         7.07470942520890    4.57255699332899    7.62670354407371
H         4.73448702354874    3.80729852371169    7.42924349094640
H         3.69870828117081    3.58250667744833    5.21593486194748
H         3.72000962681374    6.28508509536333    4.14637743052485
H         1.49910871588807    7.21626157137645    4.66137212122514
H        -0.53212908725355    6.15145941392520    3.75210490441361
H        -0.33490000901331    4.14489139594893    2.32433454669358
H         1.88718405318987    3.20011049437736    1.83587017338195

