85
CSD_code = YEJVOZ | q = 0 | S = 0 | Stoichiometry = C44H30MoN6O4 | MND = 6
Mo        3.20154282938651   11.30651996543627    6.98939917707873
O         3.96090087892627    8.55499392450233    8.14716620234004
O         4.18677185095416   12.23042318481381    9.76671995805211
O         0.52975009790800   10.76395452797737    8.44045802961062
O         2.02704057696513   14.15162315314789    6.87521510449315
N         5.89746118943708   12.70637245075826    6.09975576462301
N         5.75978173530820   10.78493741856212    5.23277779864892
N         6.93768919535391   11.28905299604296    4.80164597986693
N         1.74861767262531    9.62751142844768    4.73458064562064
N         2.54798498966637   11.40092985768157    3.91129584030621
N         1.93657989909009   10.77188568529263    2.88206533800166
C         3.72608451496774    9.51610198529660    7.56681466698199
C         3.87094947799008   11.88654246282891    8.71896629762754
C         1.49737255511050   10.95911139194438    7.85611236472317
C         2.53627028756644   13.12935168187574    6.76889527958502
C         5.08214708723940   11.61990362239347    6.03747905329351
C         7.01881400547108   12.47172487021650    5.33714888037654
C         5.70316135310612   13.79382132862495    6.98667290634052
C         4.90218317998948   14.86893643748970    6.62826450726551
C         4.73247671910574   15.91645580437561    7.51565003954320
C         5.36467417801851   15.89635451739408    8.74731783832042
C         6.17860362212886   14.83118869948509    9.09261070076997
C         6.35323104572560   13.77805041510860    8.21336610745593
C         5.45391748895375    9.43922358875983    4.90924192751904
C         4.82395280864955    9.11199014003460    3.71608639162616
C         4.58089493751755    7.78402005778946    3.40896363102558
C         4.98637158308623    6.78341836229845    4.27614412612107
C         5.64520517173469    7.10988482607971    5.45121544055890
C         5.88368752797337    8.43491318932309    5.76853213876298
C         8.14987533333047   13.36086130185503    5.13172868511471
C         8.04457215862503   14.74663052338436    5.22435081253732
C         9.15777757313454   15.53909823501881    5.01119139762384
C        10.37925724778848   14.96581506103269    4.70054582303427
C        10.48572140170330   13.58819666958011    4.59100204013463
C         9.38007474636916   12.78917415812461    4.80292399406827
C         2.45661133293437   10.73718732896016    5.07547626668802
C         1.44648261609166    9.68123272365891    3.39316722002038
C         1.22316784987553    8.69897022384905    5.66637516126543
C         1.98904710074964    7.63445665184974    6.11985407028510
C         1.44522621551304    6.74318594957332    7.02735574134144
C         0.14405088954702    6.90672353104854    7.47139342060694
C        -0.62305925736628    7.95861158280033    7.00084004748015
C        -0.08805012670691    8.85618441990867    6.09502254554833
C         3.06894588794633   12.69915237007436    3.68171496771377
C         4.36126252693284   12.88340130272973    3.20902572660117
C         4.82338660978049   14.16321522783844    2.95305465610573
C         3.99252430564099   15.25458855244369    3.14350687525297
C         2.69135167452469   15.06650144279148    3.58270350051568
C         2.22586081734293   13.79146544688866    3.84858776800919
C         0.69120388252059    8.70652547746224    2.62378748986649
C         0.65816975478437    7.35404792837353    2.95471118562388
C        -0.07663578310287    6.47279511852798    2.18276385390157
C        -0.77855564870920    6.92415499438997    1.07780756487882
C        -0.73514938800203    8.26630124439649    0.73467154289800
C        -0.00412480718692    9.15336631989812    1.49948101909112
H         4.42357304703959   14.88201266794888    5.66091910218566
H         4.09917889678838   16.74684930350748    7.24274489803011
H         5.22262108139704   16.71264044439581    9.43926500848439
H         6.67328790129356   14.81386181384270   10.05156330042045
H         6.98222101992409   12.93922005315505    8.47536385944431
H         4.53060620191367    9.88206362459212    3.01930364868733
H         4.07621027999585    7.53430945440410    2.48707912855086
H         4.79528437455771    5.74874900564509    4.03277716230947
H         5.97306083214370    6.33173271456053    6.12357776910154
H         6.40453440021116    8.69767685133912    6.67747395944299
H         7.09619655923170   15.20882590923748    5.44876211012387
H         9.06770598227369   16.61260621309411    5.08663341860633
H        11.24487925720477   15.59083087715561    4.53955087868889
H        11.43459986021180   13.13723168221788    4.34154924677711
H         9.44614965707661   11.71560887511401    4.71974098034628
H         2.99809691426306    7.50728721784882    5.75849600962022
H         2.04469565244812    5.92229615789814    7.39051757033233
H        -0.27292907174121    6.21274316700906    8.18540805549588
H        -1.63794810110379    8.08746874881647    7.34436570347445
H        -0.67648799305176    9.68379881460152    5.72524095004222
H         5.00722193690224   12.03810513530593    3.02816899952965
H         5.83498192820065   14.30377691265694    2.60106758268490
H         4.35690173220952   16.25119961987980    2.94283504497702
H         2.03736146806250   15.91403849501433    3.72066505510295
H         1.21078074423742   13.63500061280461    4.18271706465943
H         1.21387425554295    6.98592296540869    3.80288222798811
H        -0.09834211718169    5.42585305869866    2.44666296764448
H        -1.35420858912640    6.23111012418407    0.48268090763923
H        -1.27509108017015    8.62103404912004   -0.13053208778808
H         0.04106959523381   10.20070367010285    1.24461396464038

