40
CSD_code = YEJWUG | q = 0 | S = 0 | Stoichiometry = C17H19ClN2Pt | MND = 4
Pt        9.72082567350250    1.34012443957397    9.75078784722725
Cl        9.32341690102331    0.15245268780530   11.57772858479943
N        10.13414850995870    2.43740571628491    8.21026856299606
N        10.92338730174797    2.94962330097477   10.81010494621602
C         8.71268096727459    0.29799396002508    8.37815405955785
C         7.92457153420831   -0.83376304520333    8.50938735331256
H         7.81967787749241   -1.31184016520206    9.47227415311353
C         7.25963428624896   -1.35788108903091    7.40803379096839
H         6.63937493591736   -2.23494511857695    7.52551678660894
C         7.38669508957210   -0.77645122275740    6.15797530714734
C         8.18650398047952    0.34463970728697    5.97414233457221
C         8.83436673260756    0.89420566142208    7.09259396965667
C         8.34618613604615    0.91548625711388    4.62692830641380
C         7.22758692756743    1.23586376553471    3.86230147194134
H         6.24236056797000    1.08524449150728    4.27920798215307
C         7.37206889722107    1.76023789167282    2.59095631500476
H         6.49617910594991    2.01146849573127    2.01053394295199
C         8.63522608676226    1.96222007847725    2.06042346868167
H         8.74762499470473    2.36903263671170    1.06623858052893
C         9.75434986832503    1.63363772111777    2.80752443879071
H        10.74188679199463    1.77828582575508    2.39322879306534
C         9.61227363643118    1.11533552866435    4.08152957008849
H        10.48504497683710    0.83754164140946    4.65554172114289
C         9.62351134852233    2.09453990165278    7.07484103531734
H         9.77395823226954    2.68967184151142    6.17760637508699
C        10.98874623269076    3.58110677873361    8.39863847313073
H        12.02595410753563    3.28828824497514    8.18837595717084
H        10.72919961223157    4.39733356919393    7.71153842886106
C        10.85846845694080    4.06132051860412    9.85224229536353
H         9.87960703753278    4.53732830332826    9.96298822837367
H        11.63445307359389    4.81262769590072   10.06869219936919
C        10.40504674727628    3.36570066389584   12.10812091420345
H        10.40696849544152    2.51056146662019   12.78253637907393
H         9.37637987074012    3.71020231665964   12.00400944292149
H        11.01098005862858    4.17160019503205   12.54443272631342
C        12.28698217859396    2.45486870478258   10.96589549704511
H        12.67424034865505    2.09242339784838   10.01368329014898
H        12.28450984160244    1.62404858468018   11.67080953991715
H        12.95615450026592    3.24044645089208   11.34574677275361
H         6.88106807763585   -1.20778780060846    5.30576015801116

