24
CSD_code = YEJWAM | q = 0 | S = 0 | Stoichiometry = C8H6CrN4O5 | MND = 6
Cr        2.82833722506204    0.88617669947255    5.37256890611158
O         0.27561230454323    1.43258660699285    6.84185097920183
O         1.70393442356721    3.02502255708610    3.58369399250168
O         1.03033151966750   -1.04540507362227    3.93272047208762
O         3.16414875449845   -1.08243562959911    7.61987063150699
O         3.81812015207837    2.98137231437880    7.28737436799699
N         5.51158888741633    1.38441110732255    3.84848510206907
N         6.52704055243777    0.74164900730661    3.25352717993286
N         6.32119924560098   -0.48571911979251    3.34443444193353
N         5.16679185442318   -0.67192677797368    4.00088004985004
C         1.25648895870916    1.22139648667504    6.27761428629004
C         2.24322444104292    2.20823440963420    4.18925820977692
C         1.82053275395347   -0.35619115592590    4.40741178790887
C         3.14932524054347   -0.37859285631149    6.70934085856436
C         3.56382318896960    2.18302274447872    6.49811791202493
C         4.60489863159151    0.51074362035340    4.34816836652231
C         5.49504967935408    2.81487619401504    3.89104365863448
C         4.68793936192898   -1.99793671186984    4.24722741237408
H         6.39172925298285    3.17021797818478    3.38616718202238
H         4.60839801082217    3.19949055059593    3.38469185575881
H         5.48997245937748    3.16345257257830    4.92494973949444
H         5.41384248897082   -2.69360441745289    3.82981965449953
H         4.58399220239524   -2.17034105310704    5.31951059769916
H         3.71777841006351   -2.14600005342012    3.77047235523797

