92
CSD_code = YEJXOD | q = 0 | S = 0 | Stoichiometry = C40H46Cl2N2ORu | MND = 5
Ru        4.99800998046511    5.07740755344136    2.27509785738676
Cl        5.81084843661657    3.37319423051555    0.95215165055594
Cl        5.20467167470055    6.77233067129787    3.83141107042597
N         5.49735080771091    3.32457106261875    4.44391537149965
N         3.40704794773624    3.02740282873446    3.92736988973242
C         4.49894619013746    3.74301451998386    3.65334476776979
C         5.04441900133207    2.36662050492264    5.44237131669849
H         5.75979020240607    1.54880098589068    5.56306725732021
C         3.75368952689840    1.85790932534338    4.75341777110826
H         4.04564292554826    1.04300512140726    4.07461678356952
C         3.35253885574613    5.37315456137979    1.38150550662826
H         2.39525735126846    4.90015483880406    1.60278918198030
C         3.34174319546772    6.24879957260463    0.26688745092078
C         2.18489699903367    6.50439088044323   -0.48720490141115
H         1.26455346651049    6.01977737728458   -0.19529223275806
C         2.22143525076941    7.35033527061863   -1.57369550577879
H         1.32474045616924    7.53939689145857   -2.14431133264504
C         3.41353011717364    7.95897541064168   -1.93874436736466
H         3.44476777718809    8.61838697742895   -2.79303349923919
C         4.57690576508534    7.73341533106085   -1.21769963102663
H         5.48743904493425    8.21898009959518   -1.53258926143814
C         4.55111978418725    6.88948027023978   -0.11917943183405
O         5.61160884044205    6.56653331386558    0.66151764428522
C         6.86906666856257    7.21980676988863    0.50289065216681
H         7.13463280341859    7.22314267114883   -0.56442374083770
C         7.88134954892605    6.37883639696312    1.27128830816264
H         7.66114032762676    6.44008505142032    2.33891732968563
H         8.88922347161821    6.75019055395841    1.10523611661658
H         7.82926377348815    5.34086232818537    0.93834411961978
C         6.79982203453896    8.64138041307021    1.05760728414895
H         6.08418303450074    9.24644860544524    0.50588255326687
H         7.77799186970129    9.11129448686636    0.99989131605476
H         6.48407457920461    8.60441263309340    2.09937255825409
C         6.88343766082991    3.70425649852444    4.26314411629725
H         6.88623204167561    4.46799876902546    3.45743307449509
C         7.49883222280878    4.32602491274028    5.51630721282768
H         7.47695503427640    3.60073614589077    6.33346356821943
H         6.91370746557939    5.19654342737444    5.81648400740347
C         8.93831270300849    4.75188407151587    5.23900736731639
H         8.94152028906890    5.53670854501811    4.47904368766135
H         9.37347907108614    5.17037070301058    6.14849587367495
C         9.77507003159880    3.57315097484673    4.75248204311124
H        10.79292510891641    3.90455824348768    4.53786679926118
H         9.82887317274558    2.81725609674733    5.53975417806668
C         9.15315722591168    2.96023123402668    3.50182916968694
H         9.74317541687870    2.10390867148257    3.16989122872357
H         9.15277833419068    3.69553409556153    2.69443712583536
C         7.72109577650172    2.51571085456475    3.78005702767227
H         7.27209254089482    2.11002162656025    2.87041767141733
H         7.73065168093186    1.73561355469369    4.54512125930498
C         2.09977874478357    3.17707763773454    3.40382452339471
C         1.31223041368712    4.26602900028899    3.79452104187351
C        -0.00043558443963    4.33107829900844    3.34951875943205
H        -0.61250991443183    5.16812674416973    3.65393700519319
C        -0.54210746655763    3.35886577285645    2.52378360810447
C         0.27844393872993    2.32454543082147    2.09868458824632
H        -0.11390184434039    1.58577724162346    1.41428513449300
C         1.59678753134031    2.22289507175855    2.51500570351332
C         1.87286813487059    5.38866085190497    4.60851666831737
H         1.09305197609825    6.09904505685168    4.86905455145774
H         2.63843933606257    5.90870680749424    4.02845643377340
H         2.34380271421028    5.03768686830215    5.52301686887057
C         2.46804889214540    1.14006785890547    1.95514665397479
H         2.51501849818651    0.28480957165908    2.62935085273659
H         3.47481086162681    1.51803374511563    1.78161562562851
H         2.06443968990369    0.79321739658000    1.00700205192892
C        -1.96933277131509    3.42678836328503    2.07173074348130
H        -2.02875579892844    3.37577934269624    0.98549612943045
H        -2.44074431640645    4.34764522838213    2.40509912569819
H        -2.53113296401806    2.58452093834829    2.47475146734279
C         4.77372994768233    3.00280001191580    6.78615028484299
C         4.53032228168951    4.36412616754374    6.91192044037296
H         4.58624207539096    5.00843380299416    6.04629920198742
C         4.22516788856334    4.90531800541588    8.14873224863387
H         4.04061057757152    5.96583662839654    8.23397580277101
C         4.15264958158259    4.09312021339579    9.26691939239199
H         3.91007565196214    4.51658761100189   10.23019392163737
C         4.39465867756619    2.73498205497386    9.14694512002582
H         4.34091321853827    2.09542242322991   10.01536563229087
C         4.70496636509405    2.19339135732051    7.91327106678692
H         4.88900212019703    1.13212250643358    7.82040025484204
C         2.67324249339484    1.34247269758080    5.65549903666151
C         1.87186140157079    2.17914095167733    6.42028848049458
H         2.00825652292664    3.24540537628510    6.37641093777501
C         0.89751968225113    1.65375363470872    7.24905599434899
H         0.28249704170375    2.31960846915689    7.83553619562169
C         0.71302011223727    0.28501230903027    7.33168746083527
H        -0.04737023663718   -0.12359465692983    7.98018175312084
C         1.51027720826949   -0.55845074652122    6.57758526494866
H         1.37529510912264   -1.62843907198960    6.63516823928275
C         2.47998981633449   -0.03179542126415    5.74467875978454
H         3.09837490574456   -0.69861748683457    5.15918170916392

