91
CSD_code = YEJXIX | q = 0 | S = 0 | Stoichiometry = C39H46Cl2N2ORu | MND = 5
Ru        0.09734698715032    0.64259129976441   14.10207493559623
Cl        2.21394097755831   -0.23559433161245   14.32529274174584
Cl       -1.64539263296719    1.58068919056023   12.92476281265831
N         1.01494768472956    3.36359806768769   14.03687375697576
N        -0.20098973390354    3.13545540182553   15.82062664002991
C         0.39224890681209    2.48038078527980   14.82219719708509
C         0.84922252406077    4.74509097683499   14.46543865904266
H         1.81949801808989    5.16264640868437   14.76581088863625
C        -0.05860838299057    4.58782583676482   15.72086066949342
H         0.44919793981494    4.96644528880227   16.61772026513535
C        -0.73157586881934   -0.23805378907752   15.56223579965973
H        -0.88888642465404    0.15723823966211   16.56604367813116
C        -1.15952940686207   -1.57604373392596   15.37157070103440
C        -1.72192325754709   -2.34656243185289   16.40236306789042
H        -1.84107761100832   -1.89239972360265   17.37537431813587
C        -2.10780138307011   -3.65006934811440   16.18108873665533
H        -2.53719983718081   -4.23186290196220   16.98254909326335
C        -1.94190939123052   -4.21886390858190   14.92646002593329
H        -2.23960295074725   -5.24202040752242   14.75321855099421
C        -1.39682088144387   -3.48842457674384   13.88092761170477
H        -1.27914698265471   -3.96194489346904   12.91862517027369
C        -1.00729832293206   -2.17536646409105   14.09045849432136
C        -0.34880241857530   -1.73403229502667   11.79718937076425
H         0.06408126524429   -2.75175303955782   11.73952585507005
C         0.63082506102507   -0.75550585971136   11.15937013782909
H         0.21788887518016    0.25537501206524   11.20791131429707
H         0.79470077696973   -1.00897512879035   10.11562163728900
H         1.58714307774361   -0.79021182655761   11.68285161781444
C        -1.71976069067665   -1.66038483196503   11.12728475418767
H        -2.42217682208541   -2.34884009058217   11.59173882162812
H        -1.63168302444403   -1.90498487831968   10.07220542119721
H        -2.11513132645620   -0.65053538802696   11.22537967825756
O        -0.44935857090456   -1.35460336603325   13.16801370307166
C         1.73234812167518    2.99548863391218   12.84120215227868
H         1.33198010009847    3.55123698781333   11.98575800764030
H         1.52832170617055    1.92079507435808   12.68095219016859
C         3.26782554402365    3.19336920206389   12.89742406993330
C         3.64453535978892    4.59965888515810   12.42107109292759
H         4.72361077676208    4.72962058093747   12.46601508902895
H         3.18383793693343    5.37144154032512   13.03120315925448
H         3.32628317027243    4.75197391993033   11.39148430261543
C         3.89290037053053    2.16579642587344   11.94826404792446
H         3.45939327066172    2.24471777544132   10.95286886026879
H         3.72806785291551    1.16028698270526   12.32841832544280
H         4.96501151405518    2.32733552993230   11.86745687574310
C         3.79921683957934    2.94189532602418   14.30910694893792
H         3.42807981622201    1.99036510116182   14.68372778135290
H         3.50356336042640    3.73020049487899   14.99744744610916
H         4.88573052987061    2.90240385713267   14.29232033807678
C        -0.70757589652529    2.59028059194880   17.02795990632620
C         0.17548451516649    2.19647638028670   18.03800729515463
C        -0.36673895653482    1.69031691559874   19.21412056447634
H         0.29338207759228    1.36649504739641   20.00447880595804
C        -1.73333185245966    1.58834966000874   19.39452684117085
H        -2.12542298382400    1.19018742146889   20.31888942296538
C        -2.59580249313296    1.99315645198529   18.39041380621556
H        -3.66419052277590    1.91370921914869   18.52218108116081
C        -2.08189287729085    2.49481519395276   17.20959818523930
H        -2.74274360338736    2.79769302075122   16.41425286925212
C         1.67173247129305    2.27847931288942   17.86356758202932
H         1.89145557416494    2.76607178226535   16.91008593626644
C         2.26522359787701    0.87040507058349   17.79940826607030
H         2.06128736769821    0.31696151390419   18.71254021360730
H         3.34177722160770    0.92394580758006   17.65734299890784
H         1.83406477354643    0.32900904891603   16.95916846470876
C         2.31794729380290    3.10122237114857   18.98065025147894
H         1.85175916436677    4.08231094323363   19.05556490170277
H         3.37774557034815    3.23557940225507   18.77591944551591
H         2.21958430814093    2.60349946762884   19.94161769582014
C         0.25258035876919    5.63635621562189   13.40494360256064
C         0.57889269030756    6.98595003002475   13.39371721178356
H         1.27470198509107    7.37486257889279   14.12462622920249
C         0.01535598870365    7.83732223713614   12.46115395791352
H         0.27421830174615    8.88584265489813   12.46564491559250
C        -0.87651394907598    7.34486819951550   11.52415860109652
H        -1.31660150289520    8.00872826796306   10.79484544296997
C        -1.20084492126804    5.99955888982284   11.52616695841036
H        -1.89619400636756    5.60777046137229   10.79906402707003
C        -0.64374144939116    5.14741653244292   12.46276996779685
H        -0.91749608441468    4.10262104868971   12.45905610039224
C        -1.38553962583907    5.29058202829124   15.57996211828518
C        -2.40953446935081    4.73791392620312   14.82092405768666
H        -2.27768567863524    3.77137290374337   14.35768543404970
C        -3.59918173448636    5.42274125704965   14.65464233329747
H        -4.38780427498508    4.98425164559774   14.06177922424732
C        -3.77606233103003    6.66566368837659   15.23771780237970
H        -4.70389186016938    7.20144166974989   15.10268613970813
C        -2.75993021925620    7.21954299415583   15.99646131399484
H        -2.89240433022413    8.18739260638519   16.45681826178598
C        -1.57092646267906    6.53359655682696   16.16768810544980
H        -0.77851361067970    6.96994937052522   16.75980684701998

