53
CSD_code = YEJYUK | q = 0 | S = 0 | Stoichiometry = C25H20F2IrN3O2 | MND = 6
C         8.07134209082530    3.00132398696612    0.82879283915243
C         8.55856699955836    3.12171244596002   -0.48421514395417
C         9.66424595038293    2.42276299736681   -0.94477556614810
H        10.01300154823828    2.54123922128729   -1.95957546921824
C        10.32024306383086    1.56703121820447   -0.07866474421770
H        11.18322764808293    1.01525254775331   -0.41945971025224
C         9.86598498123575    1.42255490101776    1.22127957696416
H        10.37941168798607    0.75284936746943    1.89580549493320
C         8.75895347729789    2.13015539725784    1.66526399676586
H         8.42840107122445    1.99413517135703    2.68529598853895
C         7.98625453933283    4.40154276315290   -2.57127099448919
H         8.77780622212661    4.04423395210740   -3.19692517682346
C         6.97276336054827    5.29440908904292   -2.84716498223460
H         6.79027691625554    5.80540238334015   -3.76963606705860
C         6.23445529565461    5.38703639950014   -1.66624520853360
H         5.35943832882805    5.97044554837760   -1.45796389756966
N         6.76973827507709    4.60085262233768   -0.74438667416444
N         7.83309018114180    4.00605070006158   -1.29550977565596
C         5.24218158718567    2.70955216943736    1.09965095694800
C         4.76556710854150    2.27985766693609    2.36325440140442
C         3.79322320412694    1.28217830682886    2.41897568506023
C         3.27690072674660    0.69248657153662    1.28376414593474
H         2.52597325097144   -0.07692188427630    1.35138635243557
C         3.75926532515215    1.12829786995550    0.06230770723057
C         4.72062997598926    2.11422056293258   -0.04337556274791
H         5.04988148256823    2.40879158648923   -1.02783378240393
C         5.37938984932184    2.95174958441126    3.50068087763727
C         5.08425124642034    2.73261964259631    4.84589685142171
H         4.32563778915005    2.02339749632236    5.12731646095264
C         5.76632523038301    3.43323573212270    5.82278902590863
H         5.54130578265217    3.27286050062992    6.86608903382723
C         6.74505284647813    4.33900907893172    5.43911650207862
H         7.30789813285679    4.89963595629710    6.16808370069572
C         6.98740066085579    4.51424699142967    4.09052756239632
H         7.74509218580554    5.20598411047029    3.74907026695215
N         6.32515250705110    3.85524603454274    3.14395106049846
F         3.30928094142376    0.84289797408747    3.60460145056514
F         3.26821663957232    0.56229102524674   -1.06043635182065
C         5.03521257457564    6.94134300528060    1.59948787507367
C         6.22254534258383    7.68054428754715    1.64191418926599
H         6.12493007116361    8.75094554001196    1.74733555619519
C         7.52145453767168    7.17278698939108    1.56815031850413
C         3.74913564556668    7.73886355728599    1.72842410979365
H         2.89511374255004    7.07424259811251    1.62716978658007
H         3.70449851767249    8.50836256892577    0.96105660651886
H         3.71176419327472    8.22495428954767    2.70112286478994
C         8.64449430795627    8.19270426533718    1.64290175193718
H         9.60435847459748    7.68766703384244    1.56808929058552
H         8.59443062128148    8.73536293559338    2.58461027080132
H         8.55042310257715    8.91036704047716    0.83091210702656
O         4.91331031011778    5.70029654697374    1.46906119853714
O         7.86555682989077    5.96909222186109    1.45931770790699
Ir        6.52414361763939    4.24553943032281    1.21968553547288

