88
CSD_code = YEJYIX | q = 0 | S = 0 | Stoichiometry = C35H45Br2N5Ni | MND = 5
Ni        0.18155869830052    6.56032237605619    2.94223084214959
Br        1.67058901029226    4.94557928641586    1.97817502753721
Br        1.23652617617932    8.03754842143351    4.52749356872550
N         1.25384636368061    8.36666740806689    0.79793537432749
C         0.31702111887591    7.73411260129974    1.50148542410282
N        -0.91012109209468    8.04282841617445    0.92394367006721
C        -0.71162441482158    8.87483935787863   -0.16339189547054
C        -1.55987037549375    9.45948562112411   -1.08927772132087
H        -2.62748964851821    9.31879637731574   -1.06260290191180
C        -0.98584291235696   10.24134999647683   -2.07591551627513
H        -1.62382974565716   10.70919893764474   -2.80969831308178
C         0.39040364113834   10.43376518856835   -2.14897713215415
H         0.79561657711758   11.04683822888803   -2.93896817194684
C         1.24684205773483    9.85283558690574   -1.23324741098190
H         2.31307571364591    9.99497611413057   -1.29580374539349
C         0.67896331976987    9.07564047258787   -0.23633831599455
N        -1.68689739040563    6.70929536425179    2.52618575063376
C        -2.03817672755991    7.49147525986502    1.50976246601389
C        -3.38193937568356    7.65191034223567    1.19898535452820
H        -3.71144232105263    8.27782302373037    0.38940805284961
C        -4.30278350947894    6.97115516722109    1.98550956366431
H        -5.35451498898301    7.07572815631021    1.76769478112865
C        -3.91263736929779    6.16385298948617    3.04670860848968
H        -4.64658868413124    5.65123440686176    3.64186235717662
C        -2.55116489733680    6.05614954432955    3.29740188223409
N        -0.03945496525641    4.71243171341813    5.29722855735715
C        -0.48479577547803    5.43831658112097    4.27305549973627
N        -1.87221441211339    5.34812685645396    4.27617268304035
C        -2.27937395335054    4.55122630843509    5.33120654632388
C        -3.51719025569347    4.14190245898104    5.79868753103647
H        -4.43850184686745    4.43291763841478    5.32250072840593
C        -3.53971690136863    3.33338247505257    6.92112598472191
H        -4.49076069041635    2.99986670640640    7.30657987757909
C        -2.36974822298172    2.94480327608344    7.56632153452478
H        -2.43430291927325    2.31833799368057    8.44230804401416
C        -1.12916259501333    3.34618481955627    7.10854650700962
H        -0.22357935687673    3.05001587639046    7.61218319538483
C        -1.09701658539499    4.14972422421141    5.98028757575333
C         2.66731667678316    8.36825502496860    1.08899570893346
H         3.20173735558169    8.18136083286008    0.15469116114360
H         2.87515022662652    7.54684060414529    1.77874963246197
C         3.09743214672640    9.69597666433314    1.71855203839034
H         2.73505009248707    9.72344278198989    2.74705541099994
H         2.63528105200868   10.52569904574723    1.18061374795669
C         4.61682473446876    9.85684737097126    1.72327701304711
H         5.05866124351831    8.94250613572047    2.12249513259836
H         4.87591659230638   10.67112186599654    2.40190499135574
C         5.22494837530258   10.15201510825281    0.35012302146458
H         6.31099835307593   10.06623198469718    0.42746001587172
H         4.89894212304656    9.40203041931129   -0.37401702257072
C         4.88555945483680   11.54615576103705   -0.17534539364977
H         3.80260042495806   11.68100520313307   -0.21889261361517
H         5.27736498606685   12.29521985784293    0.51629462202072
C         5.46627946778904   11.78831667052552   -1.56669263543194
H         5.09831003772876   11.02070449341139   -2.25316441340211
H         6.55391911787093   11.69566331054773   -1.52618028653354
C         5.09699794056120   13.16587986401953   -2.11193138601555
H         4.00859777906871   13.25772051253464   -2.15471475397361
H         5.46495751412095   13.93389332729319   -1.42796119427385
C         5.67948550417316   13.40264404843154   -3.49982516433204
H         6.76513560026784   13.34068419442866   -3.47260835722142
H         5.40125226148926   14.38662750986629   -3.87032927416930
H         5.31312412980374   12.65543146386146   -4.20090980382904
C         1.35160119433135    4.50370275448864    5.62136015650103
H         1.48280386750410    4.65397882808408    6.69649477299555
H         1.93712964943398    5.25845693641067    5.08986285094171
C         1.81822526887554    3.10966826016959    5.20317451349752
H         1.21839402306171    2.34691006187431    5.70629575712648
H         1.68005854987680    2.99932036717642    4.12666510720061
C         3.29376551880183    2.91255418090029    5.53335922078539
H         3.45285727598150    3.04557375522548    6.60670330378486
H         3.87500807171161    3.67302929383160    5.01051215631814
C         3.78165854861076    1.52954390342075    5.11171767296119
H         3.62653699694061    1.41250248997791    4.03771351012351
H         3.19012892624469    0.76314274422676    5.61986949355426
C         5.25951441987477    1.32506417676003    5.43430831518232
H         5.83812691626982    2.09571599198537    4.92429116300259
H         5.41625604250591    1.44478653028962    6.50948963598857
C         5.74661393080225   -0.05711545997823    5.00564069444337
H         5.64011954059234   -0.15555958798829    3.92310856953807
H         5.10787742489876   -0.81364636309694    5.46953575702175
C         7.19800545931162   -0.33688893499931    5.39687075933428
H         7.41755454746046   -1.38777771424416    5.19180352656426
H         7.31845802019785   -0.17899879033060    6.47138057990244
C         8.19945277980047    0.53002661055627    4.64271581166963
H         8.06384585012960    0.41919539789649    3.56911277214940
H         9.21683937711557    0.23653948798602    4.89244761098089
H         8.07742386526833    1.57905544999151    4.89806022717539

