53
CSD_code = YEJYIY | q = 0 | S = 0 | Stoichiometry = C25H22IrN3O2 | MND = 6
C         2.74318782073474    2.91060832735713    0.85464311718614
C         3.25736660313420    3.05600174419627   -0.44639407325669
C         4.36565596885959    2.35892236589131   -0.90305770661076
H         4.73452320420231    2.49875480225505   -1.90821758318845
C         4.99891128117945    1.47769884052893   -0.04563539472770
H         5.86430762831774    0.92727647403403   -0.38307481990496
C         4.51856595954839    1.30653057871618    1.24184456412375
H         5.01405579855168    0.61646935798461    1.90963457527862
C         3.40929939437861    2.01247371310570    1.68166784801796
H         3.05802909514525    1.85418642597090    2.69175369697368
C         2.73969116528842    4.39476140214611   -2.51076255491864
H         3.54481814531496    4.05063757259649   -3.12648069679364
C         1.73756384215975    5.30072641312583   -2.78487186139444
H         1.58039292605141    5.83905653595373   -3.69660020480296
C         0.97213068853756    5.36434661544895   -1.61921552955618
H         0.09532119953861    5.94676058005914   -1.41537661157543
N         1.48131430891229    4.54961830024707   -0.70722740679799
N         2.55417146218370    3.96461377543212   -1.25016944873850
C        -0.07847434745819    2.62493815595569    1.08722496537820
C        -0.55350363810596    2.16847470809032    2.33560923604651
C        -1.51592725102395    1.16231418317845    2.41380337076888
H        -1.87797299113264    0.82096057600840    3.37274233014892
C        -2.01463681740853    0.59662577348188    1.25872423962519
H        -2.76059115463908   -0.18280868519605    1.31528773665293
C        -1.55591296647954    1.03273384238008    0.02449828280089
H        -1.94775203143326    0.58814735393120   -0.87971371999792
C        -0.60190027341162    2.03342562294185   -0.05651947971923
H        -0.26561126523682    2.35400082193570   -1.03300415710092
C         0.04709009965055    2.82343804590296    3.48607770916238
C        -0.25796686388345    2.56462650228645    4.82178637689463
H        -1.01162059181018    1.83379175571553    5.06629165609196
C         0.40118764467627    3.24728351179251    5.82499512210461
H         0.17063744099079    3.05784706158683    6.86258765414208
C         1.36912209935319    4.17915898875295    5.47289231848240
H         1.91407709936519    4.72988865976283    6.22277837026892
C         1.62443267591689    4.39301555791984    4.13253982123977
H         2.37453589591745    5.10577456201179    3.81849849297182
N         0.98413354304924    3.74730764098034    3.16105770421996
C        -0.27277215883720    6.87173189823972    1.62421016903844
C         0.91240533418652    7.61155167909633    1.68804058515782
H         0.81199874828473    8.68191674251238    1.79441924496482
C         2.21400094433445    7.10492975807047    1.63430906363136
C        -1.56144330118634    7.67108960726363    1.73265012181905
H        -2.41402238218169    7.00375523708342    1.63371615158481
H        -1.60069818920426    8.42882428179526    0.95261617883958
H        -1.60727412042332    8.17225132742637    2.69764166400476
C         3.33293723473774    8.12972076569276    1.72801932305374
H         4.29578682721172    7.62470898255744    1.70429046499682
H         3.24517038315801    8.69947132643111    2.65089329546995
H         3.27064982434792    8.82320002379853    0.89171578245047
O        -0.39509639319488    5.63135958550910    1.48890229590459
O         2.55915630053223    5.90383452426565    1.52773151947765
Ir        1.20534814929935    4.16266579578776    1.24332620011187

