53
CSD_code = YEJZIZ | q = 0 | S = 0 | Stoichiometry = C25H20F2IrN3O2 | MND = 6
C        -0.09724424454000    7.28723003215098   16.00877184473920
C         0.65532973843731    6.69594216634717   14.97007864602691
C         0.28374538299642    6.84360698627640   13.64096093715384
C        -0.83452423820556    7.57223264986687   13.28526152140889
H        -1.11805247958318    7.68186685415555   12.25224814544785
C        -1.56746793492734    8.14963925771408   14.30600433537448
C        -1.21975572638220    8.02045876732638   15.63805077887345
H        -1.83695039271566    8.50180383572061   16.38059751526320
C         2.71031759566877    5.25801048178711   14.74338327406539
H         2.71176823755964    5.14001103759943   13.68006402069779
C         3.57842234223447    4.76264854535781   15.69090945360514
H         4.44007363221822    4.15064492254607   15.52288230150742
C         3.09532467258773    5.22943792117279   16.91514536978242
H         3.48586628012775    5.07532107860842   17.90168984509776
F        -2.66390253772377    8.86620846466298   13.97970234785262
F         1.01155792569516    6.27339476205594   12.65111792327036
N         2.00914888428533    5.95871641841474   16.71654569856441
N         1.77546196752265    5.97373332485641   15.39760078460456
C         1.38463446146474    8.63821193265386   18.04998835787679
C         0.63551515339043    9.47870402185097   18.89968279610391
C         1.08684929324001   10.75858092078277   19.22083467580224
H         0.51054694238403   11.39697504918313   19.87423826257528
C         2.28085282241158   11.21648300124688   18.70312229482871
H         2.63370030022082   12.20701144933255   18.95016357698669
C         3.02723947414291   10.40086301196618   17.86601420604545
H         3.96288842548413   10.76077901200083   17.46196860376542
C         2.58231267758855    9.12840174151788   17.54610324330073
H         3.18696158119839    8.51412260345288   16.89351579376809
C        -0.60864824351398    8.90043303456824   19.38178101947974
C        -1.51479999110712    9.52042805015951   20.24163963277250
H        -1.30611294836954   10.50915897494805   20.61638373021139
C        -2.67201899668364    8.86488354048299   20.61283768815913
H        -3.37887782842730    9.33325357847866   21.28092492327290
C        -2.91115056866600    7.59372417002408   20.10708056802101
H        -3.80502387904381    7.04851673088071   20.36392693841073
C        -1.97452274198714    7.03249603825686   19.26102931846429
H        -2.12644829035458    6.04778748089137   18.84100898481379
N        -0.85219183070980    7.65437352666390   18.91045080306558
C        -0.15399401630859    3.85497903332945   18.57701961892983
C         0.61023058021089    3.89864794844128   19.74741738048241
H         0.65034249077649    2.99310737253708   20.33465818073928
C         1.32073274398987    4.99756471778584   20.23752235697551
C        -0.83902417516910    2.53341534782082   18.27542110663563
H        -1.52954412689931    2.27949855362701   19.07730479167860
H        -0.09969905225095    1.73915222401798   18.19840728024559
H        -1.38644888057852    2.60865325199866   17.33904021308803
C         2.05511796372205    4.78642147805472   21.55036302949121
H         2.76650514115842    3.96875641378094   21.45438562996170
H         1.34730707987008    4.53184342377430   22.33651362042991
H         2.58370682772571    5.69650000933394   21.82255521902809
O        -0.34379270057682    4.78751493393003   17.75973501104900
O         1.42406081384489    6.13809896135459   19.72142150217356
Ir        0.58517439256726    6.80365095425147   17.84482489803177

