104
CSD_code = YEKGOL | q = 0 | S = 0 | Stoichiometry = C29H58B10HfN3O2P | MND = 5
Hf        4.29485268170367    5.43003542581515    7.12494582365107
P         2.50814543625775    3.10249475248771    6.44971039183421
O         3.19583666177636    3.80593545274767    7.63376855740832
O         5.50386849568363    4.57073634001427    9.10555180061044
N         1.20925313608900    2.27643756132767    7.14440284010893
N         6.10502659048483    5.33765830417607    6.26959276817674
N         3.83396257252882    6.98322223482572    8.31408586346788
C         1.88341870939070    4.51949329285787    5.41517667000842
C         2.77454015674328    5.85592308000602    5.61263365754220
C         0.71212731781287    1.00238395537991    6.62078624672473
H        -0.19638034391016    0.78155760523156    7.19026534303739
C         0.32680449425375    1.11026530352089    5.15019757826378
H        -0.12007337353084    0.17389573400679    4.82374819825447
H         1.21143349793746    1.29429438409098    4.54875192299829
H        -0.38923257566148    1.91085734195718    4.99132554703962
C         1.68161338554893   -0.16890928101990    6.80683703172451
H         2.10045879744787   -0.18329728181072    7.80781385959373
H         2.50125410613309   -0.10694404155123    6.09896818923533
H         1.15189343378631   -1.10459807961103    6.63988146289675
C         0.72913615701709    2.68331152696737    8.46392608939581
H         1.24751643464809    3.61770428462620    8.69190245603751
C        -0.77232382220362    2.97647474068805    8.48912726089784
H        -1.03641089835537    3.68587910937515    7.71124068903899
H        -1.03537407651799    3.40676303660158    9.45237007512763
H        -1.35961325453907    2.07180285154358    8.35297733417962
C         1.09429320503139    1.68077189297450    9.56189385544545
H         2.16094418635598    1.47061333105609    9.53766854093150
H         0.55164148909962    0.74691710313222    9.44014771836396
H         0.84404211861309    2.09825296639265   10.53505313567147
C         3.66267211807339    2.09990178565367    5.60297616668927
C         3.76408935004842    1.77336997756978    4.22339213853394
H         3.14731876425876    2.18004098114583    3.44127329700037
C         4.79002391561180    0.88175154047295    4.03282925906005
H         5.10858069308353    0.47816336040319    3.08851736424945
C         5.35509447323943    0.57253763945938    5.29202437368563
C         6.38663888604050   -0.28478054033127    5.67540404886312
H         6.93908936708659   -0.83715268181931    4.92696049093149
C         6.67593575844717   -0.43276667881268    7.01166190371685
H         7.46447073876498   -1.10348085602725    7.32581680650419
C         5.94767730596303    0.26041795046041    7.98508536497341
H         6.17470136148245    0.08331452679506    9.02981678845968
C         4.94235551319825    1.13453092430970    7.63274231515693
H         4.37275650626904    1.65783205321973    8.39039906593133
C         4.64045107456932    1.31331014950418    6.28510409319211
C         6.95805772295734    6.49498112480271    6.06404878608039
H         7.07942943563582    7.02474457000694    7.01771878759634
H         7.95887982051757    6.17973003634278    5.73484780700161
C         6.39920318539592    7.48617131571397    5.03015219591469
H         7.05552706077012    8.34903786563708    4.93896305787429
H         5.40851903987283    7.81935304702645    5.34289754509710
H         6.31590850819503    7.01224347868703    4.05483642467134
C         6.37087793863449    4.27682435122723    5.30418832802437
H         5.49137052840936    3.62358845093678    5.24335000024470
H         6.55545825794120    4.69454204202492    4.30073717051082
C         7.56391783889467    3.38289326282083    5.67965941196685
H         7.74156972998522    2.66393162001868    4.88458338829825
H         7.34630031513843    2.82841258771561    6.58845303430917
H         8.46853309939708    3.97017621419593    5.82763020511164
C         4.61386895836277    8.20052723149209    8.42657683991207
H         3.98174141261652    9.03472309915878    8.76528950447569
H         4.97146810843530    8.45577013985605    7.42241307220339
C         5.82733089000771    8.10306933502373    9.37016247358957
H         6.45823618348553    8.98147943341401    9.25674954496237
H         6.40645567616684    7.21403021698840    9.12752146869552
H         5.51129730769782    8.04622498888128   10.40908609849353
C         3.09031173149136    6.66362637152469    9.52280589484758
H         2.70879523064017    5.63837803152217    9.41922989717029
H         3.73199479264726    6.69041963142436   10.42164136738653
C         1.89186401148829    7.59698553140312    9.77625931030231
H         1.28137061761142    7.20403990220075   10.58593191856874
H         1.28617777853965    7.67589291001369    8.87779195441637
H         2.22830469293543    8.59150248546765   10.05597040738140
C         6.92624084171160    4.47382495088702    9.20245001210988
H         7.33377918357314    4.67306528463025    8.21088275142567
H         7.29802561519903    5.21418653119474    9.92711695351296
C         7.18225236603412    3.06102679300423    9.71399231334647
H         8.16113332052201    2.95674597310584   10.17555156184241
H         7.09558554897515    2.34745041105019    8.89429635932157
C         6.03182381391308    2.86600309628184   10.70716914868537
H         5.63683047228259    1.85390772283840   10.66531778350583
H         6.35449852693756    3.06541572065974   11.72869461514203
C         4.98536228331890    3.90445771777265   10.26107018489753
H         4.81093741953312    4.64112903203640   11.05690004214859
H         4.03158045261275    3.45487412798274    9.98038956726995
B         2.84878662219115    5.06250071247287    4.10672181707950
H         3.83961451757145    4.48955562108957    3.84503766488823
B         1.22886333023791    4.41735225238223    3.83948382340445
H         1.09093861991581    3.36549570767966    3.33804884758338
B         0.21595509832298    4.86843175222636    5.20368156392066
H        -0.57474141230766    4.10356008325734    5.61495575605496
B         1.20878297740681    5.77796231875223    6.33844311939275
H         1.14764854837171    5.62735504794196    7.50421954346096
B         2.73642886023509    6.81004547105133    4.17525858005839
H         3.68155899039686    7.45220354673748    3.90033213588490
B         1.74323571196660    5.90389848466378    3.01419387551739
H         1.94421003708637    5.93764470726413    1.85648488336928
B         0.10348056065670    5.79204475952247    3.70380586780967
H        -0.85471201698523    5.73380837358102    3.02415062280200
B         0.09713945256817    6.63809242278049    5.28262971423399
H        -0.85567228377861    7.17580126253355    5.71518958132057
B         1.75066084061332    7.24853056407651    5.55758636669234
H         2.05437478261448    8.17450140125469    6.21957587445163
B         1.04695203918153    7.28417029213491    3.92080311205003
H         0.76686445943412    8.29483552183027    3.38921567722073

