91
CSD_code = YEKGON | q = 0 | S = 0 | Stoichiometry = C30H55IO2P2Pt | MND = 4
C         4.60308785633016   10.32474334509627    3.36064502775567
C         3.69483487368626   11.01835305774599    2.56886618132874
C         3.66749721985450   12.41404000621846    2.55878789595878
C         4.60317382234808   13.05641263992331    3.36069391707912
H         4.60319529037592   14.12819390829186    3.36071675880705
C         2.65521780085025   13.20583184929338    1.73843264208202
C         1.24869048527676   12.89045439779557    2.26376822526848
H         0.49796381548244   13.41004146815747    1.67184250221471
H         1.15611377425443   13.20913449920175    3.30026671740333
H         1.04799760335012   11.82534143825424    2.21634498110845
C         2.76808234102867   12.82424766445836    0.25711974608655
H         2.52709393576063   11.77812842153956    0.10580064073880
H         3.77995466061106   13.00586279709837   -0.10116524205406
H         2.07965211691957   13.42146898783227   -0.33746140277473
C         2.85959519989478   14.72169636745523    1.83625495148900
H         2.11278246437780   15.21912730328458    1.22036709684888
H         3.84193500120678   15.01177656389931    1.47055116065355
H         2.73559935529474   15.07547091579143    2.85692762373591
C         1.27693716364767    8.09476751137676    2.08824309462483
C         1.17180884759565    8.29152368966409    3.60582644491241
H         1.28508892400946    9.34502377724335    3.86591732134957
H         1.95079704891958    7.71795546807589    4.11835483855727
H         0.20592077393295    7.95027538184679    3.97510928118957
C         1.09181717152422    6.62058030238160    1.74552441618574
H         1.88621739808108    6.01137296449345    2.16904633737667
H         1.06907704340926    6.46702134760201    0.66874927026323
H         0.14467016512050    6.26782234184116    2.15221288932485
C         0.21292409858906    8.93166161030729    1.38376213884601
H        -0.76111579164598    8.71243644795369    1.82022692483921
H         0.16314567061964    8.70446303713777    0.32281761399002
H         0.40316080092801    9.99507711343071    1.50090662633634
C         3.60843667956118    8.41705523650613   -0.02097620278608
C         3.99052347764847    6.95804017720572   -0.25011026097647
H         3.14431862253328    6.29003852175338   -0.11748764550371
H         4.77338492844425    6.65367449016042    0.44060566204457
H         4.36803896671847    6.83240281699762   -1.26422639543795
C         2.58235878573000    8.87088873567111   -1.05255039404941
H         3.05966741173749    8.96387340330285   -2.02774931128369
H         2.16001651494614    9.83823816381494   -0.78852025401835
H         1.77561842426840    8.14701269177199   -1.14313036311560
C         4.87567737642261    9.27438497869006   -0.10545613669015
H         5.54547694044150    9.03798325013292    0.72917240634755
H         4.64090237674416   10.33645441748487   -0.06405532747267
H         5.40808888546701    9.07530977731390   -1.03421294871089
I         4.60365998158973    5.67141768742784    3.36141970884634
O         2.80670703913647   10.27228259481899    1.79659557192769
P         3.03393734831469    8.66501318781921    1.75198415514830
Pt        4.60286708602742    8.31215257030519    3.36022560480469
C         5.51139988494893   11.01824249925691    4.15244195519269
C         5.53882478423260   12.41395426049537    4.16257625474939
C         6.55110592044365   13.20578297873353    4.98289229087165
C         7.95761532683666   12.89045068317627    4.45749120814390
H         8.70834202799957   13.41006851025597    5.04938660094379
H         8.05016113330092   13.20909576478418    3.42097805595840
H         8.15832710289764   11.82534886964358    4.50494827009482
C         6.43823920967464   12.82427027554785    6.46421859368834
H         6.67925238939972   11.77817057199521    6.61556784742987
H         5.42636750575656   13.00587459746398    6.82251179202400
H         7.12667773949341   13.42151503322896    7.05876172980239
C         6.34670436154427   14.72165082055110    4.88503539890032
H         7.09352024283833   15.21911575240600    5.50089379076227
H         5.36437552998580   15.01174159795869    5.25075718845932
H         6.47066494613870   15.07542763227135    3.86435950253849
C         7.92917258060477    8.09477687567728    4.63297077942571
C         8.03426336582664    8.29147434501470    3.11537908846383
H         7.92091857538324    9.34495818002587    2.85525205886015
H         7.25526788507148    7.71784670294656    2.60292661512023
H         9.00014111048952    7.95025390739373    2.74603769483780
C         8.11430395846702    6.62057567192212    4.97561554265801
H         7.31980449287364    6.01138900114540    4.55220625360116
H         8.13725387118173    6.46701346948733    6.05238600723077
H         9.06138893247236    6.26781240348357    4.56877368360619
C         8.99340558764270    8.93160129342080    5.33725905339758
H         9.96744229737798    8.71233275136866    4.90078824622698
H         9.04321601195740    8.70446829892789    6.39821388348399
H         8.80320955796448    9.99501879779850    5.22007737204273
C         5.59806355745090    8.41707899852042    6.74224847828469
C         5.21604197555693    6.95806993839991    6.97150036869444
H         6.06227168277013    6.29009615438767    6.83892717421489
H         4.43315524867136    6.65358477780287    6.28085192234685
H         4.83859466735944    6.83252273779120    7.98565686636017
C         6.62411256092707    8.87101218174065    7.77384674310208
H         6.14691908412328    8.96408582988236    8.74910368583056
H         7.04644477637870    9.83833194557011    7.50969287726847
H         7.43086365669005    8.14714848343033    7.86440992049087
C         4.33076763931691    9.27432201109379    6.82690540315204
H         3.66087716666815    9.03784513442281    5.99237660821729
H         4.56545081606016   10.33640858856015    6.78543245991673
H         3.79845297350843    9.07525346042796    7.75572079539762
O         6.39944056004117   10.27196213233800    4.92462977240060
P         6.17197952313069    8.66471675655895    4.96900567577447

