43
CSD_code = YEKHAY | q = 0 | S = 0 | Stoichiometry = C19H17Cl2N3OPd | MND = 4
Pd       -3.19906298149230    1.97611023257837    7.39766373616261
Cl       -3.18680127914802    0.67658455617855    9.19903623848959
Cl       -5.40272816130635    1.83342646988559    7.27485168553100
O         0.56658214782496    2.62843744666194    5.88378701161593
N        -1.10549435318568    1.96655242527208    7.22061523125786
N        -1.67129700296438    3.33281096764786    5.45011685518121
N        -3.66350619488202    4.08899339751269    5.12404153710840
C        -2.98184673237091    3.20333439533653    5.85905597754414
C        -1.56854599440836    4.28209613770368    4.45329939925907
H        -0.63557835716442    4.53150919430530    3.99305838485188
C        -2.82226225193009    4.74820664539739    4.25857268559683
H        -3.17844119524241    5.50334482656583    3.58791647785957
C        -0.74218527233343    2.64759553079775    6.16785702317225
C         1.10279787721430    1.82895292191295    6.86800165992739
C         0.05637599163918    1.40757128207335    7.70870901340684
C         0.29363850070094    0.58018187270948    8.79617178490747
H        -0.52789512630164    0.26528784124112    9.42137282862514
C         1.60464703039660    0.19847019392225    9.00539175682653
H         1.83867033028925   -0.44667791287458    9.83793054535875
C         2.63815271530213    0.62205644590261    8.16975159199912
H         3.64637125593968    0.29669451508616    8.37479513593209
C         2.41196559904415    1.44754360024820    7.08057710284203
H         3.20771770746634    1.77437641849483    6.43188551868581
C        -5.04396370920181    4.38269930813659    5.30663452790584
C        -5.44502704728653    5.00593466390947    6.48989040914450
C        -4.46060420902428    5.31362476465804    7.57779183282963
H        -4.14105829564574    4.37283734407983    8.06623446660729
H        -4.91835987386949    5.94401336527577    8.33473934846408
H        -3.57577916322699    5.81806011290753    7.18788039093512
C        -6.78922102528647    5.30115148245667    6.64424524156489
H        -7.12084524518974    5.77568286151945    7.55562759406906
C        -7.72208810850214    4.98049514249874    5.66740902071551
C        -9.17288537713049    5.27964258800425    5.88140190662766
H        -9.62085731022645    4.48742984631840    6.48079487899869
H        -9.70611606392454    5.33262566580010    4.93560698169526
H        -9.30183726395862    6.21772923216427    6.41631574363126
C        -7.29212391678145    4.34201390893042    4.51371670641239
H        -8.01320236629769    4.06505528431811    3.75871720412567
C        -5.95678066480901    4.02773862185697    4.31708891911965
C        -5.50497666455254    3.27923146405463    3.09980449759677
H        -6.36126426850415    2.96217190070876    2.51168010056755
H        -4.94430641255102    2.39414060752180    3.39898651721635
H        -4.86267726711904    3.89216243032169    2.46747452963163

