43
CSD_code = YEKHOM | q = 0 | S = 0 | Stoichiometry = C19H17Cl2N3OPt | MND = 4
Pt       -3.27092171842256    2.00245342350642    7.34262027749243
Cl       -3.29839586572975    0.45277728967125    8.95551529503046
Cl       -5.49962075397139    2.10661234158489    7.41326438260114
O         0.51880030471233    2.76104017105842    5.94233121380874
N        -3.70845180038550    4.26115949267802    5.20092079756535
N        -1.70756793324816    3.52856920766943    5.53513337760880
N        -1.20098670964634    1.94110852578135    7.12095318671412
C        -3.02349074057796    3.37195765801740    5.92865538999187
C        -2.86519557028740    4.95513943619382    4.36753355222523
H        -3.22912351115201    5.71652562135056    3.70770522364737
C        -1.60599129022744    4.50542239833680    4.56724971720952
H        -0.67184538983717    4.78123999596516    4.12513043213870
C        -0.79705945770396    2.75755427557295    6.18053483937671
C        -0.05897592794625    1.31567107307630    7.57614942865800
C         1.01669036441048    1.83550184509739    6.83285906308667
C         2.31751344630834    1.42242192370391    7.03738559680725
H         3.13447613715151    1.82687034692737    6.46314802170974
C         2.50721446298693    0.46285531654598    8.01830037198259
H         3.50761654525885    0.10873164485883    8.21360623983271
C         1.44568310035026   -0.05764034885317    8.75798617687908
H         1.64994921666955   -0.80460927784659    9.50924559106630
C         0.14283972832736    0.35502286458510    8.55539003890543
H        -0.69760287497057   -0.03116113335514    9.11019603395401
C        -5.10963755855137    4.49129079875500    5.30186421562018
C        -5.59219251935482    5.24701917199674    6.36891368191248
C        -4.65720412018482    5.75390854104945    7.42191699167497
H        -4.24307626031179    4.90175325195383    7.96904183448802
H        -5.18339562363733    6.39082991504568    8.12670381907997
H        -3.83021929686601    6.31525984660475    6.98676869805238
C        -6.95712592344356    5.46523635878699    6.44634019940982
H        -7.35170870315872    6.03904203093070    7.27168146113986
C        -7.83059120838110    4.94025103643541    5.50319570430089
C        -9.30560655365907    5.15767990660800    5.63976218441566
H        -9.81767276895115    4.97456257749185    4.69845217291938
H        -9.51961548407713    6.17178337766980    5.97076024365370
H        -9.70528155443192    4.47029875461206    6.38520299487997
C        -7.31781470569459    4.17963316147280    4.46304507140845
H        -7.99093001254192    3.74739535444953    3.73719801715586
C        -5.95787542548358    3.93808904663661    4.34741179206868
C        -5.40786020184507    3.05964811924710    3.26584375791417
H        -6.20333842559642    2.71894887170130    2.60952143106334
H        -4.93348444697874    2.18753154816771    3.71639285317459
H        -4.66122296891338    3.58081423822773    2.66666862736306

