54
CSD_code = YEKPOW | q = 0 | S = 0 | Stoichiometry = C24H20MoN2O6S | MND = 6
Mo        1.81596887085999    2.81571598694539    1.44090065365223
O         0.64207620191988    3.99320797902974    2.41877716939173
C         0.20015354286629    5.04909793740401    1.82051867511502
C        -0.57133883451718    6.03624314352570    2.57814399570613
C        -1.11080053569532    7.20921267456951    1.97076499545454
O        -0.94330155435119    7.48344579467829    0.66781389930621
H        -0.40193640878129    6.76911467643273    0.26783589673078
C        -1.83300724777582    8.09024985350300    2.74482350854052
H        -2.23753599022028    8.97396821974578    2.27581433796480
C        -2.04876091888287    7.86645112912561    4.11430105177598
C        -2.78722568401675    8.76454309811604    4.91512309705876
H        -3.19787324533647    9.65116019988871    4.45448529928304
C        -2.97841736899847    8.51882649301247    6.24540575707944
H        -3.54459996370798    9.21183208776243    6.85052585063958
C        -2.44248581913443    7.36525836499040    6.84429856640361
H        -2.60543397975220    7.19189760751103    7.89768803887183
C        -1.72321094756847    6.47513345278402    6.09956277820257
H        -1.30580900715142    5.58617806223124    6.54948157239406
C        -1.50738915883543    6.69869395212215    4.72137351505582
C        -0.77594718738374    5.80738374059747    3.92533291989738
H        -0.35200803416863    4.91353808944019    4.36339081073920
N         1.18429131229463    4.23522287411622    0.01858823484832
N         0.43389114402338    5.23749846176040    0.54610902851163
O         2.31319125906584    1.92434259952805   -0.09472042338122
O         3.20144079547343    3.66567635153176    1.68427217621906
O         1.60243807243881    1.51902141719877    2.47822008601527
C         2.73188052995424    2.23182418765197   -1.29709743748635
C         3.53102018011225    1.28845299039970   -1.99087427567343
H         3.78090933755461    0.37383524226644   -1.47187766768443
C         3.96901929613168    1.54121317761539   -3.25348457403895
H         4.58163390855326    0.81908691951576   -3.77375779197599
C         3.63675801775929    2.74637684336803   -3.91584263045273
C         2.83715241553936    3.71575942440883   -3.25319989072127
C         2.37898465017400    3.44973004363553   -1.91588711889008
C         1.56934973592554    4.38599070986310   -1.20905692255623
H         1.25136811084099    5.30004183771222   -1.70584798465298
C         4.09799563492042    2.98915409005547   -5.22385597554866
H         4.70475109218726    2.23473593013341   -5.70329619944150
C         3.79014052760979    4.15203721864586   -5.87485563289880
H         4.14687183893432    4.33382563902788   -6.87719955549083
C         3.00705051556332    5.11302878430724   -5.22813467442456
H         2.76528173424364    6.03314211766891   -5.73914125033752
C         2.54468333504142    4.90168488434725   -3.95456491804364
H         1.94875381027956    5.67285179305362   -3.49478747081554
O        -0.16002799299557    2.03020181748981    0.83604811104267
S        -0.33041261264573    0.82634397731798    1.73589751168795
C        -1.95676680949166    0.23235746773146    1.04769151304648
H        -2.70620828181101    0.96416489632671    1.32722891380482
H        -2.20517071035671   -0.72597381469323    1.48769647367669
H        -1.91055383365114    0.15901395560859   -0.03152560966524
C         0.62262804896002   -0.49076894437401    0.90690975661057
H         0.50148190116419   -0.36687347549304   -0.16509973827507
H         0.24905319772178   -1.45494947108857    1.23337669138142
H         1.66310310911622   -0.36670249005428    1.19630685633568

