55
CSD_code = YEKQAJ | q = 0 | S = 0 | Stoichiometry = C22H22MoN2O7S | MND = 6
Mo        0.72516622500542    1.94656123403843   13.74569591676592
O         1.33741623044851    2.58135820874346   12.05330011102134
C         1.26720797362681    3.84069413000293   11.78122621587810
C         1.86943200794547    4.33599653525118   10.53827675143581
O         1.28696163151486    6.64798298349225   10.96770301123168
H         0.95168896567255    6.19551518192324   11.77283471564801
C         1.85315609875990    5.71663256661523   10.18157506279239
C         2.43412985621946    6.10980092118224    8.99718218877010
H         2.41510364000632    7.15697937422747    8.73679746464903
C         3.04820632905800    5.18675345570230    8.13456014449225
C         3.64878339321503    5.57948539938475    6.91891130088752
H         3.63047280273886    6.62479376504127    6.64658297928699
C         4.24270152671729    4.65783058986831    6.10367024357563
H         4.70082177368691    4.96772330644216    5.17562774836428
C         4.26725568685430    3.29829216392794    6.45992555600049
H         4.74315395953417    2.58729265422388    5.80088021297388
C         3.69519317418424    2.88348163753059    7.62847401759883
H         3.70924007464713    1.84148588223349    7.91290778790962
C         3.07280931656494    3.81026120176810    8.49373819221570
C         2.47513418016303    3.42075963306424    9.70051131486955
H         2.48176990065761    2.38002940560286    9.99711661311707
N         0.23111380878671    4.05258964179286   13.72829090759273
N         0.67305943605185    4.67478157209513   12.59435014769181
O        -0.62582334018437    1.96526046359826   15.05917568324767
O         2.05021720712249    2.28895967065833   14.66197799395655
O         0.62371438709339    0.35288352945680   13.35110858567209
C        -0.79706078980757    2.79510377382884   16.07561260254970
C        -1.16948908998510    2.26686313941423   17.30856056310398
H        -1.26690140570485    1.19588644016745   17.40598190935550
C        -1.37529981935929    3.07925542568899   18.41835003421192
O        -1.72069017029792    2.44776770233385   19.56298024392675
C        -1.90144247535734    3.21048044722196   20.73469967160228
H        -2.72539924421908    3.92263206828160   20.62723256856984
H        -0.98808671361767    3.74615228638162   21.00917854924787
H        -2.14592378925265    2.49303316199462   21.51613192665967
C        -1.21902385508597    4.46132201327917   18.28090215300446
H        -1.35273720736327    5.12274746741127   19.12127920782581
C        -0.87746958154864    4.99406412593343   17.05835202243489
H        -0.74023465389351    6.06168434836205   16.99377853909608
C        -0.66306656083504    4.20199659164526   15.92333224063422
C        -0.28246912433024    4.79661708919750   14.65961710169199
C        -0.44966026680420    6.27364700556495   14.44462424869757
H        -0.61241194907538    6.46740026592263   13.38686709386811
H         0.45805610960553    6.79681644059040   14.74355598407977
H        -1.28907070830304    6.66078567382369   15.01372029390587
O        -1.27241568629844    2.17580386750630   12.53380456064807
S        -2.47392956151421    1.67291747086517   13.26648090046782
C        -3.73331655710945    1.61727075657947   11.91607623117307
H        -3.28772662113894    1.15193125518948   11.04402064671519
H        -4.01941185724415    2.63636574277834   11.67767434767717
H        -4.59919547902330    1.06176733022906   12.25642665263321
C        -2.26865145279701   -0.13122276453059   13.42042782011518
H        -1.20707576011366   -0.28902042613251   13.63447725612582
H        -2.53749404426285   -0.63810318236645   12.50068135999692
H        -2.88208793134742   -0.47505062503307   14.24627240233818

