57
CSD_code = YEKSUC | q = 0 | S = 0 | Stoichiometry = C28H25ClOSiTi | MND = 12
Ti        3.83955811075047    4.37226698048395    3.17384154150130
Cl        4.31891279044444    5.41664434888930    5.09892553344126
Si        0.89671395946268    3.57929450240324    4.45681074066355
O         2.21280655416333    4.01292996485318    3.63297228762328
C        -0.10151552145565    2.42866511185706    3.32744896015171
C        -1.21193143507008    1.73105021688091    3.78941253209436
C        -1.92544322643491    0.89099593970985    2.95301211448036
C        -1.53689854506470    0.73430390013651    1.63297147156810
C        -0.43155731024963    1.41942956621607    1.15640623869862
C         0.27628014053212    2.25707718937159    1.99947518189883
C        -0.04954666003310    5.17105554758806    4.88005900692231
C        -1.43297417114366    5.21220915691033    5.01884988927145
C        -2.08287266316346    6.39343369990295    5.32974688056967
C        -1.35615004719655    7.55855563128671    5.50855042340181
C         0.02190736876132    7.53611629461429    5.37086587432216
C         0.66678413011411    6.35282835585852    5.05907320403796
C         1.48013291770904    2.65176447481634    6.01599149396040
C         2.13091322601953    3.35246851223507    7.02964695663121
C         2.64013648210318    2.69615548052495    8.13621279917157
C         2.50455366377178    1.32252285721914    8.25232825660124
C         1.85816230813010    0.61096589311722    7.25589411365351
C         1.35442406155608    1.27145230138217    6.14884509036237
C         2.56234141048719    6.02771149396769    1.90312481892345
C         3.11647544725991    5.09191673925025    1.00409750181145
C         4.52328746948862    5.22915007209684    1.04508409266621
C         4.84099510143573    6.18442396973923    2.02432927503693
C         3.62194316400270    6.68903740555248    2.54475787693597
C         3.92273086886172    1.98371749743005    3.14254182335370
C         4.68052022831445    2.44995665522934    2.04936454942444
C         5.81547754893526    3.12562412717034    2.56018602395159
C         5.73693418609439    3.10631963618817    3.95837981189104
C         4.55814407379789    2.41015034299663    4.32451907351665
H        -1.51421129605396    1.84318003515225    4.82087703909666
H        -2.78492479865437    0.35480477817945    3.32959458573455
H        -2.09284436920237    0.07884927881009    0.97829735533065
H        -0.12435574849603    1.29791768518452    0.12706888463701
H         1.14629985763729    2.79424585269971    1.63646692874021
H        -2.00714697379756    4.30897224469425    4.87308450644649
H        -3.15875942693417    6.40685923711108    5.43274234798243
H        -1.86268000575474    8.48103497651369    5.75361129610225
H         0.59396576400912    8.44231217113905    5.51018767526574
H         1.74437121157709    6.33406077489307    4.95037664367469
H         2.24426210762356    4.42345177937585    6.94470895517623
H         3.14659205967319    3.25652926129242    8.90867168548122
H         2.90211898575119    0.80794096846701    9.11531472131753
H         1.74963943232703   -0.46119384654678    7.34019672164749
H         0.85500250619869    0.70689880319421    5.37368502328656
H         1.50779401614310    6.22772601085221    2.04403691939661
H         2.56134391489146    4.50798269597146    0.28089390886969
H         5.21665024244529    4.77245086922781    0.35216629549014
H         5.82665542313632    6.57925316901161    2.24237919051123
H         3.53042408298249    7.51670581166347    3.23633822197299
H         3.04642383505689    1.35080513854841    3.08921514999319
H         4.51073479149503    2.19000706672434    1.01220750264520
H         6.66118932956064    3.47861510766091    1.98427621166815
H         6.49112317369208    3.46857010794639    4.64594946157792
H         4.25908625230616    2.16042615635065    5.33462732941680

