63
CSD_code = YEKSOZ | q = 0 | S = 0 | Stoichiometry = C26H29ClN6Pd | MND = 4
C         3.85495728676537    0.20434836651368   12.02440976328518
C         2.29282877904370    1.52772434011448   12.94458103874364
C         1.88326463072558    0.55211491196158   13.86525488450901
C         2.59668304462788   -0.63747055762050   13.73605178285646
H         2.40581440693141   -1.49439137836881   14.37288064592700
C         0.61838775553484    2.77955402335762   13.98221872487042
C         0.89460802680884    4.80740610065417   13.09859733741635
H         0.71450040973772    5.85414016857349   12.96399465228756
C         1.78633941004022    3.98048929793109   12.50012124047624
H         2.52276938804860    4.16123461355889   11.74561315587021
C        -0.79595393497842    4.49683168514336   14.92898640831519
C        -0.49955953150675    4.46080633565867   16.29549099986768
C        -1.49729212907283    4.81249362420606   17.19117074585690
H        -1.28702273819001    4.78452555553315   18.25054355205258
C        -2.76402246519900    5.18425347020900   16.76143695623403
C        -3.02367988357882    5.22073919977888   15.39971016164081
H        -4.00585045785791    5.50800990999366   15.05308430384673
C        -2.05441062566943    4.87884498743887   14.46807385452968
C        -2.35971467476287    4.89611685446586   13.00069714142844
H        -3.43393286603060    4.89231023456497   12.83549002234781
H        -1.92369418225279    4.03172429662257   12.50236489884889
H        -1.94998788440475    5.79224489113119   12.53439817311212
C         0.85384308565666    4.03493013209925   16.78066243836453
H         1.01607456836665    2.95596091503741   16.58704473848730
H         0.94745705002750    4.21047087372647   17.84887579212181
H         1.64185984133135    4.58245646643316   16.26426219421401
C        -3.83750838423314    5.50117869415590   17.75599950115418
H        -4.29375543738319    4.57567083546608   18.10938823613835
H        -4.61579283732070    6.11457968606538   17.30939947174253
H        -3.42656864130517    6.02181982214242   18.61775772443558
C         5.62367684097290   -1.18520186863104   11.09918424878200
H         5.70137043304906   -1.56559498339918   10.07381046483880
H         5.13134690698770   -1.92743925798605   11.72658337617562
C         7.01828805587921   -0.85162626375557   11.63320907861111
H         6.93080435553373   -0.53755886117267   12.67503789937280
H         7.64740930947350   -1.74211526558355   11.59624642718251
C         7.63724703535787    0.27400802860778   10.80693977367620
H         7.78686511621910   -0.07020493387718    9.78033837801516
H         8.61262194899579    0.54747977924068   11.21440810887573
C         6.71084401176670    1.48797458536103   10.80315367948517
H         6.61165997623083    1.87545309351266   11.81904290048895
H         7.12016161471820    2.27901335262751   10.17245670341516
C         5.32621514726919    1.08308954075800   10.29094411193607
H         4.62735468524515    1.91699213410571   10.34899156646651
H         5.40281086799044    0.74632813495309    9.25019344964667
C        -1.60570518825110    1.52599371634569   17.34033632396317
H        -0.67173848645436    1.45309146937904   17.88659839715823
C        -2.82150775559201    1.49266458907719   18.00173525229539
H        -2.84959475214359    1.40825091832657   19.07674830710940
C        -3.98925783553284    1.55561748121643   17.25896878712795
H        -4.95503318340231    1.52449189564952   17.74179759362090
C        -3.89015354888320    1.64606624998698   15.87969047701476
H        -4.77182265778568    1.68355475062411   15.25941276777997
C        -2.63211007971294    1.68154307916860   15.30348096352983
H        -2.51576468452701    1.75453877627543   14.22490618051880
N         3.55977665156660   -0.80912839839041   12.84229463207727
N         3.24744109110748    1.40419976743677   12.04331991613855
N         1.60375894506082    2.74544240679703   13.05881872770034
N         0.19074162217398    4.05494855464614   14.01212997065206
N         4.79760914647129   -0.00185777406601   11.07975601085602
N        -1.51120842103513    1.63188159679007   16.01780140690034
Cl        0.19009481242862   -0.81917015493501   16.13696818437926
Pd        0.32035700892112    1.10565550435982   15.00543539320905

