91
CSD_code = YEKTIU | q = 0 | S = 0 | Stoichiometry = C30H55ClO2P2Pt | MND = 4
C         4.51246159479420    1.84021820024609    3.08696342580361
C         3.64364757905827    1.14693147032102    2.25021786866321
C         3.62262692827391   -0.24859588764396    2.23329101332728
C         4.51239909142825   -0.89132617262937    3.08695512862434
H         4.51237493535805   -1.96339226260515    3.08695992539167
C         2.67020569749746   -1.03570218427090    1.34022268562210
C         2.91350012604414   -0.65888017426984   -0.12678140492802
H         3.94692667562547   -0.86401754067709   -0.39998247783828
H         2.71192868553573    0.39330765733450   -0.29353196213612
H         2.26219344579673   -1.23961288047215   -0.77689150006261
C         1.22756846488854   -0.70185405404840    1.74077553843833
H         0.52530420377875   -1.23495099401400    1.10310732860739
H         1.03929485130770    0.36213407412999    1.64710216910988
H         1.04901699202282   -0.99257614299924    2.77406445999841
C         2.84939972848814   -2.55263674018056    1.46266445605886
H         2.14625668657267   -3.04714126797115    0.79518008683928
H         2.64507173358702   -2.89592451658985    2.47388472213326
H         3.85321499969556   -2.85586250844068    1.17476353293280
C         3.59944034867803    3.83311799758525   -0.30442752402926
C         4.90357722081284    3.03079463417716   -0.36427939659403
H         5.44918946622180    3.25586942725925   -1.27935047478025
H         4.71050824553103    1.95994734912368   -0.33361334581975
H         5.53876555114300    3.29095980775497    0.48889812420831
C         3.92610132833070    5.31661188039817   -0.44928032529135
H         4.52599562786435    5.48163193287003   -1.34333453407674
H         4.49061408585350    5.66783016427572    0.41377294736574
H         3.02614003694790    5.91948161150317   -0.53139676729070
C         2.63467056219765    3.36925962381820   -1.38907270717015
H         1.79520105310431    4.05397569634744   -1.48456434734027
H         2.25169439785443    2.37440196164775   -1.17079048524432
H         3.14856602476872    3.33402924090399   -2.34926227976704
C         1.24496561677930    4.08234995250432    1.79379258079495
C         1.15008831962764    5.58943111015824    1.58084888527772
H         1.09780378256645    5.83645254708192    0.52291107307640
H         2.01410047852745    6.09005690883925    2.01609350085434
H         0.25250058644629    5.97784163601071    2.06048535332305
C         0.17141103831303    3.34305253889567    1.00324885274071
H        -0.80825644172469    3.56568763275527    1.42500311891162
H         0.32453190483165    2.26776214676054    1.05021839332072
H         0.16427540410677    3.64519773833827   -0.04011470447401
C         1.10863964073074    3.77341730748407    3.28927020242398
H         1.88795666801617    4.30397906469944    3.84599313945306
H         1.20875151408649    2.70356964487387    3.47549571759037
H         0.13974372191249    4.09889367383069    3.66512295194625
O         2.79157632664386    1.89663772169569    1.43767804458962
P         2.99327604411330    3.51195430440603    1.44239815854106
Cl        4.51291195090429    6.21267604652734    3.08630472269417
Pt        4.51246731055517    3.84581965955092    3.08702458830172
C         5.38123266032374    1.14688287985861    3.92368931364234
C         5.40220493256438   -0.24863724839645    3.94061296586165
C         6.35466436085731   -1.03572640839738    4.83365085633194
C         6.11158432618995   -0.65875025269428    6.30065115831961
H         5.07817658561340   -0.86378528718223    6.57399048518689
H         6.31326231379071    0.39343783585023    6.46728607407706
H         6.76292045844269   -1.23947974934850    6.95073497540905
C         7.79727710380581   -0.70199013707704    4.43291023769764
H         8.49958400406241   -1.23505087853760    5.07056331682058
H         7.98562123520492    0.36200150569590    4.52643120098281
H         7.97569923120949   -0.99284406773765    3.39963926497450
C         6.17535312701144   -2.55265806458210    4.71135769722759
H         6.87852740120013   -3.04715324449499    5.37881589038277
H         6.37955915787861   -2.89604632773677    3.70014676823374
H         5.17154142750080   -2.85578088577109    4.99938119719853
C         5.42474972788776    3.83316274557958    6.47804524741229
C         4.12078486628666    3.03052880544070    6.53751357192589
H         3.57470262996862    3.25574401405659    7.45227021023286
H         4.31415327299940    1.95972341405061    6.50726535281394
H         3.48591979698884    3.29026115931476    5.68396483804642
C         5.09768671522839    5.31661560297094    6.62248620265176
H         4.49749166405602    5.48170131652315    7.51633091878196
H         4.53335838157260    5.66752154483454    5.75918323265698
H         5.99748473113829    5.91971106405234    6.70472304311024
C         6.38919917914170    3.36974476067991    7.56314355329560
H         7.22855596167698    4.05458872085162    7.65873861584311
H         6.77236087812222    2.37485333643316    7.34531472042514
H         5.87492780735513    3.33476224579849    8.52312715130922
C         7.78024110870447    4.08215546650789    4.38081663815156
C         7.87514173988750    5.58922765697445    4.59383491863206
H         7.92678291071164    5.83622216304505    5.65181344198172
H         7.01145199045096    6.08995230582552    4.15806278615527
H         8.77306954843663    5.97755840587381    4.11476580269273
C         8.85330281511033    3.34271387614807    5.17187419168898
H         9.83315991169385    3.56512621931595    4.75048027840999
H         8.69997643990679    2.26744632309585    5.12494604751749
H         8.86007450097856    3.64495687912374    6.21521565694442
C         7.91718349406238    3.77320312140992    2.88539194103604
H         7.13806941262710    4.30369957464523    2.32831945803057
H         7.81718052568992    2.70334860416547    2.69915856660039
H         8.88622071995802    4.09870396295898    2.50992355121861
O         6.23337917020339    1.89650175818194    4.73625581350909
P         6.03178153800379    3.51183624533943    4.73153438648726

