91
CSD_code = YEKTEQ | q = 0 | S = 0 | Stoichiometry = C30H55ClO2P2Pd | MND = 4
C        10.26103070274245    1.83217921983811    3.09053011545369
C         9.39072014734003    1.13828816215318    2.26010725533755
C         9.36962168461408   -0.25786997273807    2.23997521050311
C        10.26097209396248   -0.90160796206257    3.09055386689150
H        10.26094942176066   -1.97361507122835    3.09055971709866
C         8.41875747385589   -1.04496299835969    1.34522927296201
C         8.59545420419644   -2.56198935312486    1.47076233482786
H         7.89217291637779   -3.05647328004906    0.80338658125999
H         8.38943012715187   -2.90295967007331    2.48248863397547
H         9.59903207097528   -2.86772521848817    1.18452286885126
C         8.66865296026210   -0.67036005784381   -0.12122430674810
H         9.70312341970674   -0.87688538884295   -0.38981779034014
H         8.46871776574540    0.38199087628546   -0.29019332019415
H         8.01951136085225   -1.25098314908167   -0.77356491137217
C         6.97480081222710   -0.70927219556729    1.73875931345247
H         6.27474153744645   -1.25091384235320    1.10592578899604
H         6.78487217863970    0.35313418948591    1.63091317003290
H         6.79459661101767   -0.98812276316585    2.77512278072429
C         9.39499294531934    3.82593944861554   -0.26866789008411
C         9.73040505148324    5.30819015102537   -0.40817169985956
H        10.34331492918461    5.47041259166507   -1.29407420551539
H        10.28726339784510    5.65496021186686    0.46387995147835
H         8.83520905585571    5.91628677016299   -0.50167816128182
C        10.70354793777931    3.02566798349072   -0.29888464568646
H        10.51312632739795    1.95349545965151   -0.26440355658990
H        11.32615048362315    3.29826377579138    0.56808768783333
H        11.26512596521099    3.24509677145628   -1.20590239049347
C         8.44208906577933    3.36142824605394   -1.36276618073416
H         8.95864541329966    3.34069035188317   -2.32184552859587
H         7.59491543294586    4.03781458901545   -1.45220236556879
H         8.06848928766014    2.36076186040727   -1.15399225075933
C         7.03900540788558    4.10739688509131    1.85013626560323
C         5.93645074503851    3.35664804486683    1.11261041030242
H         4.96546307618948    3.65468010941843    1.50692029528063
H         6.04147781570825    2.28259680438089    1.24422039119722
H         5.95147657380188    3.57603714858436    0.04852099667282
C         6.95199245593842    5.60824249245355    1.59426560335830
H         6.87946118567884    5.82253834002493    0.53036309299481
H         7.82892619851512    6.11445989623571    1.99760441692644
H         6.06725750199511    6.01774034078646    2.08041657932101
C         6.95234203687906    3.84445485103947    3.36085639250918
H         5.98803470305960    4.16382790699981    3.75393769382877
H         7.73985857427504    4.41167328155494    3.88131373151543
H         7.07586340084845    2.77939575249537    3.57586627425695
Cl       10.26109035474643    6.09631998829773    3.09011065829768
O         8.53270705962812    1.88795873749725    1.44902895402559
P         8.76798410439819    3.49695508191395    1.46970230500924
Pd       10.26103667234298    3.79667754756940    3.09029041766766
C        11.13132704454924    1.13824898734006    3.92095604288521
C        11.15235872708225   -0.25790232973913    3.94111786119239
C        12.10320852270369   -1.04499148199621    4.83587944650916
C        11.92639454985820   -2.56201133017399    4.71045614554125
H        12.62963155979647   -3.05649532387331    5.37787864602828
H        12.13240305780778   -2.90306940495062    3.69875464802327
H        10.92278588769337   -2.86764008859507    4.99670651074074
C        11.85338954328349   -0.67025525474345    6.30231294164722
H        10.81890695843764   -0.87664748534219    6.57096903028479
H        12.05345845572931    0.38208573624786    6.47119443168828
H        12.50249915441698   -1.25090600863985    6.95465982983731
C        13.54716596246489   -0.70940129244376    4.44225754291528
H        14.24721386678650   -1.25101571545770    5.07512521476440
H        13.73713309182296    0.35300768681787    4.55001557592207
H        13.72733726111211   -0.98834281345227    3.40591177272503
C        11.12680634934632    3.82591841856619    6.44959024309111
C        10.79110172841047    5.30812062991375    6.58892053158740
H        10.17808271610406    5.47036358995750    7.47474531067077
H        10.23424966003248    5.65467101868096    5.71677920156556
H        11.68617844559195    5.91640097192175    6.68239111379095
C         9.81840860896569    3.02540899390502    6.47977076494528
H        10.00902870615533    1.95327081193731    6.44541081333724
H         9.19583284208998    3.29780436892115    5.61272457012637
H         9.25672348787728    3.24483089411252    7.38672516361390
C        12.07970370629354    3.36169300879427    7.54379756033953
H        11.56311742964497    3.34104601575042    8.50286492865791
H        12.92679918519092    4.03818653804754    7.63314427052227
H        12.45340997815149    2.36103462930026    7.33517710576275
C        13.48309024096665    4.10737596007610    4.33107406304970
C        14.58556712908602    3.35644788216655    5.06852558852288
H        15.55660232541329    3.65468424040758    4.67448551669770
H        14.48063507120506    2.28243985598668    4.93651715530421
H        14.57034691680893    3.57545457249737    6.13268911630606
C        13.57018887098860    5.60816837001240    4.58724442872948
H        13.64262389950982    5.82225952172547    5.65119664302696
H        12.69333437484841    6.11451740184605    4.18390800113605
H        14.45500114562019    6.01770638587925    4.10126254438785
C        13.56985354757229    3.84466907834913    2.82031967750496
H        14.53421055023710    4.16404070268654    2.42735667049627
H        12.78242002351173    4.41202847692746    2.29990116099273
H        13.44627060299568    2.77965023973122    2.60512971233530
O        11.98940861843059    1.88784591760421    4.73200621293769
P        11.75412954625000    3.49683467819078    4.71136646519988

