64
CSD_code = YEKTAM | q = 0 | S = 0 | Stoichiometry = C25H30Cl2N6Pd | MND = 4
C        10.45994336275871    5.56217815019890   17.44591390911166
C         9.82439749312038    7.24308842930094   18.83036835339937
C        10.58823324549367    6.71807297254462   19.87757917077212
H        10.68777740033937    7.20872383233197   20.84965678513335
C        11.26382678339989    5.54531099521526   19.56608181278365
H        11.88951730477389    5.04702080372781   20.29668546926923
C         8.48470988036361    8.75641893814105   20.18017794571353
C         7.96261192179349   10.25733371749439   18.62513141910918
H         7.49769770525004   11.13427463572685   18.22260343775215
C         8.71707367666730    9.30701422332233   18.03002984786293
H         9.04926252677916    9.18804694762093   17.02043074980809
C         7.21246568778154   10.68207636319509   20.96699295726330
C         6.03291176241340   10.24545615564567   21.57028010702493
C         5.47133129426050   11.03527544809369   22.56532969334116
H         4.55800249479026   10.70516099705369   23.03994238462554
C         6.05730722436311   12.22457722017264   22.96718391610329
C         7.24284008696628   12.62117561197656   22.36302107922790
H         7.72306444365556   13.53229271200526   22.68881922960288
C         7.84100311421155   11.86284974316728   21.37103601443069
C         5.38743962906385    8.95006875947788   21.17899702599055
H         5.41056836731976    8.80049219534658   20.09974835550616
H         4.35464845172592    8.91836549867533   21.51765584695594
H         5.92737220607554    8.10493669601563   21.64423038495974
C         9.16924498628644   12.25570809218574   20.80220642686212
H         9.49762031232371   13.20181840704202   21.22295748413601
H         9.14068123916026   12.34606709972836   19.71749530351746
H         9.90121294394636   11.49050641047307   21.06280117299909
C         5.45112691534769   13.05457026238466   24.05696810987087
H         6.00559393989816   12.90764709807191   24.98377773722915
H         4.41477716284122   12.77600419001743   24.23053082148105
H         5.49613725503265   14.11235478998641   23.80616508012402
C         7.42666182732487    6.86589057393459   24.40081796723491
H         6.84347414463817    7.77432699619635   24.26143699231052
C         7.32125325316937    6.11289551581745   25.55733893404622
H         6.63903992828746    6.41322597480359   26.33693538410960
C         8.10592409408998    4.97784171892757   25.69142551965281
H         8.04858446335871    4.36987139179155   26.58171543060729
C         8.96683298275362    4.64109604902581   24.65836563059436
H         9.59645443112280    3.76761595576530   24.72069261441527
C         9.00821870193554    5.44638090708389   23.53326239138655
H         9.65778960492623    5.21048363715189   22.69242710375780
C         9.52338712837719    5.57244720882603   15.22669690605960
H         9.78670438319987    5.12949293756008   14.26375943312553
H         9.71058445182469    6.64935571543449   15.18289408484874
C         8.04496474370221    5.34016431360537   15.53145230481271
H         7.81290472693167    4.27934268022232   15.55698814060493
H         7.43297924010055    5.81395864672084   14.76823212177914
H         7.79886919217080    5.77161649282628   16.49736352856806
C        11.07805882813439    3.75299214492685   15.97063133410587
H        11.92627311909594    3.70086446190323   16.65525059663499
H        11.44811628159112    3.76857414341815   14.94082914419100
C        10.18008930513017    2.53738116617708   16.18876988192687
H         9.76372410099680    2.56648040688466   17.19187569847170
H        10.76126678813322    1.62589266363250   16.07740450496923
H         9.36599022538440    2.51730983314643   15.46882390859302
N        11.20249859002285    4.96232778653535   18.38757159643026
N         9.78169361244269    6.70782216032141   17.62922222540810
N         9.05493938987876    8.40233064718114   19.00779954403217
N         7.82893368081175    9.90103891815425   19.94650120143596
N        10.40271616315483    5.00501892455733   16.22705722210071
N         8.25212711096297    6.53411198004588   23.41130099688246
Cl        7.39752920563053    5.97387967327012   20.56481377103534
Cl        9.45359224055436    9.26887133763359   23.01903668384538
Pd        8.38812324187782    7.66380964022960   21.78560917007027

