59
CSD_code = YEKWOA | q = 0 | S = 0 | Stoichiometry = C16H35CdN2PS4 | MND = 5
Cd        2.66262882079587   10.51536159715596    2.67699422734648
S         3.72629479133554    8.52233384143290    3.97997299623183
S         5.28784302304634   10.68681902497451    2.71475426761873
S         1.58895016489396   12.82525904915008    2.09849194474354
S         0.05358147223700   10.31896087143030    2.40737060322683
P         2.94082855278891    9.22210608630030    0.22244391689249
N         6.34692150393005    8.46804523081078    3.67621523805313
N        -0.97549727780486   12.58334679869863    1.53577209304717
C         5.22413513622160    9.16910084360180    3.48129708937205
C         0.12216026049299   11.96357056170049    1.97482845712502
C         6.31191621418433    7.19025173445070    4.35983429787144
C         6.28256426010561    7.32850475155069    5.87937067244957
C         7.63143403997985    9.00779641884088    3.27670833223384
C         8.21878672423995    9.97101153916559    4.30433757148590
C        -2.24787642518162   11.89563363993143    1.45131649518380
C        -2.40648244410317   11.17506400439244    0.11552614773850
C        -0.94845397648917   13.97391006354271    1.12905047616140
C        -1.19536083886533   14.90942067869836    2.30882191455195
C         4.51563951765099    8.26185935007223    0.03117352698319
C         4.64313250522348    7.37538037528638   -1.20052827131806
C         1.62236009593710    7.94827571894891   -0.01468546027070
C         1.57875267166523    6.96740666036764    1.14955333893926
C         2.84562434675441   10.13100366458532   -1.38870926876488
C         1.76850468623818   11.20835728561942   -1.34293078274107
H         7.19010125760214    6.61901991346711    4.05027624854902
H         5.41242383886717    6.65826406793866    4.03568055275528
H         6.20366430611952    6.34401404077511    6.33224810193929
H         7.18372808757271    7.81148123095234    6.24706695016769
H         5.41968200123000    7.91700133553675    6.17873698744335
H         7.49241683304804    9.54056627605205    2.33141754797396
H         8.31245607151702    8.16946435509227    3.11249087486125
H         9.14900905232257   10.38448654938561    3.92454284051676
H         7.52405776467304   10.78739374639554    4.48144874607203
H         8.41912206661502    9.46679720391539    5.24578982341511
H        -3.04013753659224   12.63587957031227    1.58152308036005
H        -2.30619387251373   11.16882804294251    2.26515009430342
H        -3.38629518328857   10.70959640913389    0.05965374804734
H        -2.29859788955538   11.87117979246389   -0.71355228848606
H        -1.64829468164913   10.40165919280015    0.02681902798692
H        -1.71468060039076   14.11432973968030    0.36310285338383
H         0.02990415252245   14.18866610715239    0.69235180258477
H        -1.19119340939355   15.94145657890581    1.96993854428055
H        -2.15391435838834   14.69618145677230    2.77693132936973
H        -0.40917636388126   14.78256139583342    3.04814134574582
H         4.62348071166318    7.66354508644128    0.94163030519384
H         5.31491810427299    9.01047322916734    0.04421845985357
H         5.62267896937342    6.90041524118779   -1.20556993916612
H         3.89141481734412    6.59025238364600   -1.20174582626347
H         4.54624660597663    7.95515938270398   -2.11494648449889
H         1.77637742390406    7.43217730101939   -0.96717007625408
H         0.67440517650258    8.49173326452689   -0.06513373964464
H         0.75038233822539    6.27198794710321    1.02924235553185
H         2.50150849754879    6.39450505238891    1.21601508753682
H         1.43963119309353    7.50517641301361    2.08884762684250
H         2.64317800253498    9.42024259612513   -2.19527534504040
H         3.82320298712654   10.59175585728886   -1.55814038826322
H         1.72247809066454   11.74525614288831   -2.28872432144125
H         0.79022811106945   10.77124377007102   -1.14878505023975
H         1.98749960902841   11.92436953629861   -0.55050069957239

