82
CSD_code = YEKZIY | q = 0 | S = 0 | Stoichiometry = C21H47B9HfN4 | MND = 9
Hf       -3.49596901005405   13.91865219577656   10.78540724918694
N        -2.09315601920245   12.12258510497817   11.78635943705668
N        -5.03895204068048   12.54330168898518   11.16785710845967
N        -3.21563601544503   15.11636234228833   12.48316570901153
N        -5.61676678929765   15.66360069864356   10.47673072443430
H        -5.03501697361185   16.49257719579347   10.61297645621426
C        -1.36199899590750   12.91244582497473    9.69130713306725
C        -2.60539293262751   12.48664514445012    8.90779622172210
H        -3.03202269638048   11.51861945120633    9.18457869402232
C        -1.10915421968316   12.30314899748376   10.95799496724804
H        -0.08417689267634   12.03981653893196   11.24662610877853
C        -1.83444851885790   11.40886094881793   12.97906240088565
C        -1.02988061615198   11.91316806572037   14.01019512966549
C        -0.80241417128716   11.10887274124828   15.12079740556382
H        -0.17470528161902   11.47281080667105   15.91912651165617
C        -1.35358256106523    9.84778957858953   15.22169415825800
H        -1.15618124613438    9.23909790358787   16.09183395171246
C        -2.15413208849605    9.36283816152169   14.20367043932067
H        -2.57412454633326    8.37327093902918   14.28796927649877
C        -2.40387536943484   10.12740088140369   13.07665060148626
C        -0.41744908613654   13.29686514038911   13.95848806311536
H        -0.94410839789640   13.88090053037594   13.19303859925721
C        -0.56570989730014   14.02734128936310   15.29837849282814
H        -1.56220932283981   13.89155679312193   15.70957745726748
H        -0.38780357318755   15.09118988193860   15.15816389627589
H         0.15754196232902   13.66326327295853   16.02464319854788
C         1.07339842474838   13.23096634233896   13.60660477527020
H         1.24173255520220   12.81512718372232   12.61701185243733
H         1.60275013543358   12.61017512732406   14.32733320670605
H         1.50305546589268   14.23018744811712   13.62886474453027
C        -3.20950738357778    9.59101760341677   11.91469640252959
H        -3.69234845305708   10.44687781404673   11.42728446447515
C        -4.29907850979388    8.60632136830063   12.33702568265304
H        -4.88140231358316    9.00829809876317   13.16284985749801
H        -3.87542818727741    7.65149310854958   12.64086731308917
H        -4.96960890615901    8.42020587527788   11.50047867647651
C        -2.26420140955619    8.92537343349929   10.90738318343898
H        -1.51459846195805    9.62955165050782   10.55220411214761
H        -2.82338576676483    8.55350901916378   10.05090241166434
H        -1.74748750482362    8.08711075427112   11.37192348760843
C        -5.42929991421013   12.22261289275771   12.53060906328262
H        -5.90608387217308   11.23036225244187   12.57263281069816
H        -6.16115788191530   12.93893737475950   12.95012668454969
H        -4.55598785129212   12.19204728306997   13.18271575514311
C        -6.14770648071978   12.20399284283716   10.29490619621646
H        -6.38630657225810   11.12860268983136   10.37071643204733
H        -5.90904735207441   12.41595830639694    9.25408857291386
H        -7.07828356818119   12.74269533080800   10.55428036393075
C        -3.62949746398579   14.80269827674550   13.83752399435250
H        -3.01015908278064   15.34857647417247   14.56478931100766
H        -3.51663759120323   13.73727581161903   14.03699726022269
H        -4.67896027025152   15.08629211053892   14.05325484569165
C        -3.03259560596723   16.55485994058968   12.38428901546265
H        -2.27698341332563   16.89987230745770   13.11031641916565
H        -3.95763887311718   17.11884601831876   12.61560950332802
H        -2.68316411895675   16.83513170423378   11.38961746562022
C        -6.59507016547852   15.64525907378686   11.56322050645439
H        -7.23094337036266   16.54173313838213   11.56603449403258
H        -6.07772257609914   15.57612981763652   12.51704262599833
H        -7.23921966443730   14.77439976119231   11.45152277604352
C        -6.29802521350864   15.82996090522779    9.19110847244376
H        -6.96302547745079   16.70385202909471    9.18940573471744
H        -6.89902465817719   14.94456244450327    8.98936958618649
H        -5.56206795973566   15.94482868745841    8.39906567189017
B        -3.49712201440467   13.76400810469437    8.40400979186894
H        -4.64790924271962   13.61063928634547    8.14136506968091
B        -2.64749360442832   15.19008095278670    9.01641810299962
H        -3.12060760889386   16.28602963089252    9.13906446338988
B        -1.27342575471753   14.58354426580074    9.87013283567820
H        -0.72562661022760   14.99567677426146   10.84500636958744
B        -1.02704054620917   12.29735680779720    8.13057145776059
H        -0.58090269863124   11.21233570531333    8.04188026151706
B        -2.42986966028052   12.88867065732028    7.24808653017358
H        -2.92848207614797   12.18774923295132    6.44312470412998
B        -2.42874625790655   14.65755403960380    7.30034831638563
H        -2.86452556350211   15.30165541699804    6.41162545646239
B        -1.00455998380300   15.16595288933264    8.21901143933886
H        -0.42441352748620   16.17095600934252    8.00931788087133
B        -0.15937610578620   13.71094930416428    8.74932554779068
H         0.97227242789725   13.58084391190068    9.05172712116618
B        -0.87591944606122   13.73361935146496    7.14060041819737
H        -0.23970711368566   13.75329323965859    6.15132110953319

