82
CSD_code = YEKZEU | q = 0 | S = 0 | Stoichiometry = C21H47B9N4Zr | MND = 9
Zr        3.48448419098375   12.08054825136993   10.64922961658361
N         2.10679304399319   13.80759539150901   11.60927707590884
N         5.04725071581960   13.40036755958321   11.02738925979920
N         3.24613534623183   10.83188139204066   12.29026982021944
N         5.52974409215163   10.39366314692918   10.31529194841501
H         4.90358625952125    9.60095791856020   10.48011023841094
B         3.49236947717570   12.14112328644376    8.22118581733756
H         4.65224643014691   12.28445835875628    7.97561333682846
B         2.63173407284592   10.73652955524866    8.80999451278115
H         3.10851598802302    9.63696475295240    8.93809283302528
B         1.27951875223252   11.32613834795290    9.66983305833601
H         0.72757022464876   10.90682810158840   10.64475966928930
B         1.05583500591618   13.64767599313546    7.95804482812797
H         0.62214995485024   14.74024931475721    7.88834398511502
B         2.45089819719080   13.04671894121554    7.07176055403782
H         2.95915338429523   13.75599909490045    6.27835401355490
B         2.41470491637042   11.27913161076669    7.09154582978168
H         2.84579869716877   10.64530455460750    6.19191662896391
B         0.99120170487170   10.77658867691514    8.00105734925368
H         0.38959425408819    9.78571346401958    7.77913043889494
B         0.17250564542271   12.23195925632446    8.56893971146583
H        -0.95790613425293   12.37573886956089    8.87526184084883
B         0.87798396555037   12.23121991005834    6.95247530136695
H         0.23491376268445   12.24162172068187    5.96630413797148
C         1.37366339516429   13.01327418322529    9.51547822571874
C         2.62669199951461   13.43286166959665    8.73885305848045
H         3.07049959126770   14.39513960278026    9.02330808820993
C         1.11486834314237   13.60156974115184   10.78696275329195
H         0.08227423993697   13.82438085595915   11.09113249566965
C         1.85745719619236   14.51343484763060   12.80525463748332
C         1.05129227863687   14.01584387522101   13.84031459737911
C         0.83682856162491   14.82096750850551   14.95315150922298
H         0.20967883960278   14.46209901177224   15.75425781221580
C         1.39944520586068   16.07718171476909   15.05320359390947
H         1.21220061554804   16.68558819914732   15.92569146938026
C         2.19584648633261   16.55933672524185   14.02995639053994
H         2.62127739252228   17.54672209376770   14.11274365444537
C         2.43184927200165   15.79474355481049   12.90050897696585
C         0.42399527753591   12.63776037399337   13.78984173946175
H         0.94108023840893   12.04811226739946   13.01825936121946
C         0.56633206155077   11.90804050215831   15.13185711880939
H         1.55841872147938   12.04848713612942   15.55229516662599
H         0.39186305977621   10.84338522631433   14.99303722454623
H        -0.16399026731065   12.27118285735344   15.85158161278011
C        -1.06930191005730   12.71923724920878   13.44910177097853
H        -1.24349667226800   13.14519896267999   12.46492628003848
H        -1.58733621431816   13.33856062021542   14.17932566194867
H        -1.50730836423196   11.72352189913719   13.46669755654577
C         3.22456570280103   16.32498967074478   11.72602330124011
H         3.71444006656888   15.46529780247198   11.24630896753036
C         4.30063540748471   17.33399771874061   12.12552186599399
H         4.96281208658746   17.51828735578066   11.28184949465184
H         4.89501049814909   16.95636526060744   12.95433234501356
H         3.86212028532380   18.28622222801183   12.41640600006548
C         2.26226663445048   16.96182289921702   10.71521580463575
H         1.52154058593139   16.24062599204050   10.37539056611986
H         2.80997052375268   17.33014210441709    9.84977546437429
H         1.73608993508985   17.79878934141907   11.17159975766507
C         5.45955220639447   13.74562253239779   12.37522915068309
H         5.89646092054393   14.76020042558597   12.40361187886352
H         6.23706904864203   13.06453519150872   12.77807950583320
H         4.60424052957277   13.74073425281132   13.05626853976051
C         6.10007980036363   13.80179236739126   10.11640404733078
H         6.29347394591520   14.89010219663219   10.18946939496398
H         5.83307595217366   13.57974745028297    9.08175436158762
H         7.06806381534452   13.30735939602214   10.33736749065644
C         3.59446794106078   11.13541131949825   13.66355502740113
H         2.92077843648375   10.60990386698825   14.36086710588131
H         3.51031677130663   12.20728583561887   13.85977444266216
H         4.62221903652824   10.81305963514781   13.93824242676823
C         2.99387104672388    9.40535231964981   12.19050081789089
H         2.19084913275079    9.09839930010737   12.88738582038750
H         3.88196544893751    8.79812645163276   12.46754591543939
H         2.67455253143185    9.13181488913525   11.18144413586408
C         6.50279563656064   10.41335493196821   11.40613122733946
H         7.08862018289898    9.48262102983229   11.45641094391113
H         5.98475463150286   10.56041595369334   12.35199443305736
H         7.19722504679782   11.23970522238032   11.25305893231488
C         6.21203638258692   10.14105240434636    9.04479573980183
H         6.84678546740345    9.24465028466456    9.09419921472826
H         6.84608322071675   10.99390564851682    8.80243139050672
H         5.47699984537826   10.01009857268390    8.25313192687971

