63
CSD_code = YELJUX | q = 0 | S = 0 | Stoichiometry = C27H29BrCuN2O2P | MND = 4
Cu        2.68224452723237    2.07855485545449   10.64664371393290
N         2.58602961612965    0.18830631672961    9.89846457748994
N         3.99809365002075    2.27682579631907    9.12018038578677
Br        3.72907961239603    2.59799228871384   12.60994920736468
P         0.57252660719993    2.82784011677723   10.40529644417767
C         1.67244604699806   -0.73192744638745   10.18038770214089
H         1.06378508876196   -0.54133397832677   11.05453384455860
C         1.49965102293064   -1.86966724741399    9.43063058304808
H         0.76211660517178   -2.61095512352104    9.68700279138936
C         2.31540540521427   -2.06837644008908    8.30377515498473
C         2.90327561717245   -3.46586479004512    6.47475844059645
H         2.77821164694158   -2.70245506549262    5.70034873919270
H         2.56397747243742   -4.42622181325412    6.09105852402210
H         3.95995456334142   -3.53938227987643    6.75001796702833
C         3.26367924308740   -1.10131394032656    8.00193768625170
H         3.89477426499889   -1.18366159411825    7.13260444751295
C         3.37801798497674    0.01563507197316    8.83105537114910
C         4.33876388980216    1.08933593770825    8.59714385005676
C         5.54036970879755    0.89806238464731    7.91511877052603
H         5.79172346412073   -0.08392785094789    7.55009045896099
C         6.40699440586113    1.97190216761149    7.76373396720450
C         8.04519021435894    0.71000689208641    6.59550430797731
H         8.15693300322730   -0.04783009728305    7.37697417478901
H         9.01835786925719    0.91954489712461    6.15554479284362
H         7.36939635281353    0.33892488088864    5.81801604689179
C         6.03207641647130    3.20817678635814    8.31549656046565
H         6.69011257340888    4.05403891764328    8.21410947902186
C         4.83750864070559    3.29904541503843    8.98543949971148
H         4.52427802143909    4.22833135603105    9.44106024725337
C        -0.09423240146689    3.07848847555025    8.68115336680080
H        -1.17512801604458    3.25742166983214    8.72232920961019
C         0.60511721582797    4.29749474861277    8.08581912930306
H         1.68703575941003    4.16997310449634    8.14367889701485
H         0.33761427818477    5.20394168651215    8.62674608191874
H         0.32954139597697    4.42378920997340    7.03968504393053
C         0.21385098692900    1.83138723815626    7.85645893575995
H        -0.19715658671602    1.92295027633674    6.85152969187761
H        -0.19537594362046    0.93319789412713    8.31847785215402
H         1.29341356504157    1.70491230782984    7.77455463081655
C         0.15961848673566    4.42392887426580   11.18585813802447
C        -1.16065941483733    4.83160511004168   11.35430154032590
H        -1.96955803150497    4.19067050264623   11.02988138154243
C        -1.43273213327799    6.04958229637172   11.94690358239169
H        -2.45754093302894    6.36656295636729   12.07755602934614
C        -0.39495532988575    6.86077030617192   12.38079548764035
H        -0.61474784205428    7.80913823899766   12.84880239955535
C         0.91857712038526    6.45273079855713   12.22466068262737
H         1.72738526070603    7.07579916060513   12.57518086551485
C         1.19734524544188    5.23633969704819   11.62688848198002
H         2.21997694728289    4.90267415864673   11.51990574654823
C        -0.63594901947214    1.76511134664087   11.25531102660024
C        -0.31462348058082    1.50280746872748   12.58839515445981
H         0.57931134903300    1.94468102957778   13.01197055886649
C        -1.12266816071714    0.68763099483661   13.35562102626522
H        -0.86757491232347    0.49297035783932   14.38654076462947
C        -2.25610842290554    0.11678298056064   12.79636206960433
H        -2.88940081939236   -0.52456071836590   13.39144332815355
C        -2.57544234755266    0.36746667134731   11.47277024859956
H        -3.45885710987058   -0.07725773744820   11.03679473654466
C        -1.77069197431182    1.18719855294915   10.69921764685922
H        -2.03898233345529    1.37268591258761    9.66926347052436
O         2.09630285834161   -3.19837822912083    7.59805530641594
O         7.59632120846094    1.93479624469823    7.12700975146677

