61
CSD_code = YELNEL | q = 0 | S = 0 | Stoichiometry = C27H23ClN6O3Zn | MND = 4
C         5.52004336099157    5.03291991474261    7.55320230625042
C         6.29430984017663    5.64633171468322    8.54578653569117
H         7.00654428718327    5.19925398334806    9.20826886632731
C         5.93271976833818    6.98428176046257    8.49094771076082
C         5.47086950853263    3.63645806967489    7.14933882921107
C         4.65628552947551    3.22315450211833    6.09280076942122
H         4.05143930076951    3.93976939864986    5.56155132704981
C         4.62177171173853    1.89126486018123    5.72439632994466
H         3.98801977022340    1.58226520231545    4.90646806806416
C         5.39049458536767    0.95368686829687    6.39467267670782
H         5.35866659532447   -0.08571465449802    6.10269241639628
C         6.20047635540260    1.35576554917875    7.44357750270543
H         6.80180070526618    0.63025496131726    7.97219776001864
C         6.24153033519024    2.68480412597101    7.81854971102657
H         6.87458118137484    2.98490091517127    8.63933741498359
C         5.83444335710710   11.87117088383805    8.32602952572160
C         4.98545417363092   12.60752107328157    7.50733972744313
H         4.88349681494895   13.67154678798064    7.45066003990999
C         4.29035169922086   11.65384981590751    6.75998900852238
C         6.79814990410256   12.30904599499467    9.32122171407523
C         7.82507377994573   11.46287095093036    9.74200971896429
H         7.91945530072191   10.47586550637136    9.31534654331300
C         8.73673568126228   11.88965592959304   10.68864044916225
H         9.52992323330328   11.22860919455279   11.00514493650195
C         8.63977446586814   13.16130884457624   11.22987980437241
H         9.35344093827842   13.49078568005041   11.96973636070772
C         7.62408140118590   14.00805767163173   10.81765146413174
H         7.54324057694512   14.99912033865906   11.23835380897224
C         6.71005031459377   13.58797665725465    9.87037569798844
H         5.91262858522359   14.24616216556025    9.56304583221242
C         1.73186075256239    8.76730884977240    3.51172515859858
C         1.96853730926538    7.41137595657321    3.49067718482816
H         1.70133773041446    6.70456639435551    2.73374777524770
C         2.68835352286655    7.10360953284631    4.67933899431766
C         1.06239371981044    9.62173400578041    2.54405445541475
C         1.32165013561728   10.99172413865189    2.49352127415613
H         2.04165993567457   11.42841380467016    3.17034940099911
C         0.68249413277693   11.79218215591030    1.56572647315102
H         0.89391876423080   12.85152234819192    1.53412645121951
C        -0.22352040414818   11.24211666057869    0.67419289669187
H        -0.72182057169394   11.87033105607569   -0.04915903753365
C        -0.48485962638331    9.88222697656082    0.71371797882315
H        -1.19038634452683    9.44852991615176    0.02028670094870
C         0.15146905026808    9.07764474810259    1.63912792774869
H        -0.06110349407851    8.02066404636713    1.67568309580489
Cl        2.45905400704619    9.07168976007004    8.86033103800615
N         5.01407783962539    7.18219651244735    7.54620623202080
N         4.77539457228845    5.98808002213230    6.98613635604848
H         4.03473125722160    5.95695226712606    6.14597908982053
N         4.68612567168932   10.42787702097750    7.07809345422736
N         5.62603413465993   10.57900965755852    8.02072533576136
H         5.98987192017714    9.75613868115652    8.48705463685693
N         2.85115608161580    8.25214966202456    5.37962285243596
N         2.27318764842531    9.24944458690143    4.65015702737257
H         2.27944511539998   10.19392671395958    4.99666056857552
O         6.40330383397723    8.03726237139550    9.21354843208032
H         6.85467064115139    7.70406557415824    9.99704061871470
O         3.34550723023935   11.83928367944202    5.81831297891775
H         3.11425208071726   12.77507993560416    5.77752322785196
O         3.12767685106663    5.98024268607564    5.05655760988295
Zn        3.64797344034259    8.60900561159238    7.11912095448171

