36
CSD_code = YELNEJ | q = 0 | S = 0 | Stoichiometry = C9H22Cl2NiP2 | MND = 4
Ni        3.77934469116046   10.55755597683530   12.75334563776226
Cl        4.38382977133991   11.85918842172054   11.24021203646750
Cl        5.17608339236099   11.21024497013453   14.14534352833370
P         2.20340919273063    9.72331853324024   11.51121718106805
P         2.95040895225359    9.04963743876806   14.09059688350516
C         1.67422049827080    8.51018530587095   12.83228897967325
H         0.65049303692627    8.68913101833168   13.16359077467797
H         1.78034933884277    7.46573195143183   12.53557978146218
C         0.68659247764663   10.67913390874274   11.15009562511519
H         0.91954005024543   11.39927846836299   10.36682205468661
H         0.37957325576054   11.22650901138753   12.03980499306445
H        -0.11382384397463   10.01643174177932   10.82174266287624
C         2.38979980711079    8.73580829232142    9.98287895079480
H         1.46283661782116    8.21025283235594    9.75562263882062
H         3.20533987971304    8.02471438281404   10.09775339785800
H         2.64076035216845    9.41749875424098    9.17150250512372
C         2.02805084573374    9.38301724244034   15.66363735331975
H         2.80732388088726    9.63649480412464   16.39236384963012
C         1.16688631166247   10.62468169340340   15.44175311030101
H         0.32755849688549   10.40973457342783   14.78113106875597
H         1.77048839204923   11.41740214498294   14.99375329191745
H         0.76890506088968   10.99060233581912   16.38590559386720
C         1.21757505409885    8.19229568741726   16.15885230544115
H         0.68015419793877    8.46592029186058   17.06538134405490
H         1.85962482842893    7.34555955862597   16.38955205937823
H         0.48576885448198    7.87825947063838   15.41639513936490
C         3.98986893239451    7.54212486427587   14.37911884652384
H         3.34057124761744    6.67989347128518   14.57656847764203
C         4.92159856548208    7.80846796403344   15.55780727524176
H         5.67090745234789    7.02233867755641   15.63028720344112
H         4.37508539221343    7.84392907462842   16.49776225068964
H         5.43153689207384    8.76121676619690   15.41228783782106
C         4.79456093519931    7.31314343170494   13.10103139410468
H         5.32688717199091    8.23268526426534   12.83473499277610
H         4.15022206656021    7.03213603391752   12.26834734434686
H         5.52986795069108    6.52367564105720   13.24363163009361

