49
CSD_code = YELXIW | q = 0 | S = 0 | Stoichiometry = C12H27B9Pd | MND = 9
Pd        9.70604404462293    5.57150074092531    3.22297539974949
C         7.82060122258277    4.47991874647800    1.60017106842267
B         8.48542728688913    5.97689931743408    1.46362753552616
B         8.14423914538057    7.21383384064499    2.69812167196023
B         7.66732788248453    6.24782191890107    4.00743780256830
B         7.67669171646809    4.49394901681969    3.23605117951535
C         6.74487861443519    5.36622476328966    0.91708489638219
B         6.21829326796867    4.36858008111602    2.18117858177641
B         6.19286575388882    5.37456370725429    3.62714941285334
B         6.40220440873392    7.08759957772780    3.08198129720113
B         6.98654247261949    6.98115313696061    1.39898878022924
B         5.60488304154995    5.98977803800194    2.00834716764000
C         8.43886756326520    3.31129646441168    0.85401523118754
C         6.42299524478958    5.09065803188651   -0.52931373119715
C        11.88668539941391    6.55179138167134    2.73723114071668
C        11.84074165128779    5.36245565691118    2.10004281667738
C        12.44622975806532    4.05512987442265    2.54410384827823
C        12.39352772782494    3.77452548450741    4.05741086888868
C        11.08952480468868    4.16820417040860    4.70371662767713
C        10.80561982933621    5.37220259200303    5.25033253253002
C        11.66345565669788    6.61328544857403    5.26717207482853
C        12.58253046216580    6.81828661920146    4.04630427795322
H         9.23853856364243    6.08669271964079    0.55274995960011
H         8.74952219899212    8.23547552537589    2.70726977963370
H         7.88960233644226    6.41608277605532    5.16040619113460
H         8.08937189342615    3.54234482436974    3.81229001620088
H         5.66203074394578    3.36641699516938    1.92375692060276
H         5.46229243338878    5.06904205913959    4.49974407685637
H         5.82781658977358    8.00370827455131    3.54800602089565
H         6.80995996425890    7.76812218485677    0.53839197701083
H         4.51224110300163    6.14074223626230    1.59929937003051
H         9.34991938331593    2.99573789110987    1.36890382853130
H         8.71142091083617    3.58356712064339   -0.16629842147048
H         7.76706867549914    2.45278156669092    0.80655355086460
H         5.59429116100679    5.71725762766682   -0.85494006841936
H         6.14380357064521    4.04836367716080   -0.68902914406810
H         7.27720245850194    5.31573371375014   -1.17002668460083
H        11.51826402688920    7.43132603663387    2.21217020262227
H        11.48668306185601    5.35021986214101    1.07012775523811
H        13.48926701071579    4.01429122473505    2.20827920506581
H        11.91492276667190    3.25005581514709    2.02679708776112
H        12.54343588595631    2.70130781859430    4.20163366646525
H        13.21417000488779    4.27924159207856    4.56594350200434
H        10.40886943152432    3.34516912196939    4.90912605536885
H         9.93915012114461    5.43420807626489    5.90777512408677
H        12.27309555441807    6.61539074365403    6.17805084485440
H        10.98269540818611    7.47043775773959    5.32710623507161
H        12.91911813030880    7.85771017494840    4.05763695409215
H        13.47096965560354    6.19291397410051    4.12424551320138

