49
CSD_code = YELZEU | q = 1 | S = 0 | Stoichiometry = C20H22CoN2O2S2(1+) | MND = 6
Co       12.55782929345900    1.22504446744803    0.56625082249931
S        14.28865805629720    0.81621143616759   -1.01625407831459
S        11.47341801936834   -0.77559216476836   -0.28560496483903
O        11.23230917969956    1.49110239057001    1.82206546124158
O        13.50615930001258    2.72520185056291    1.08331678604307
N        11.72729700895170    2.35172036458894   -0.73235911729017
N        13.36373158588658    0.09109689953522    1.85752802194136
C        10.45856541247776    2.52254435418991    1.90146921952471
C         9.76788978437330    2.74782283196771    3.11407394371029
C         8.89214043838718    3.79342778151308    3.24665918677781
C         8.66094222150533    4.67769930279847    2.18740028179859
C         9.31225944980852    4.48808320383286    0.99881355180181
C        10.21436284834559    3.41884368998595    0.82214342563693
C        10.84663801843503    3.24738895611914   -0.43146443261852
C        12.20532274191684    2.30136678339282   -2.10046852758883
C        13.71525882798967    2.11504392363467   -2.14970700368905
C        13.84541522946927   -0.75068262548749   -1.86405122541453
C        12.38033135050573   -1.15687006717275   -1.83523144370991
C        12.30618441139964   -1.89735293997374    0.89739652479352
C        12.63491367875865   -1.12293635096158    2.16406125136088
C        14.35679362053445    0.42219411612851    2.61185511857211
C        15.06071753682009    1.65053448816750    2.57288414832419
C        16.22605403056544    1.80541629889677    3.35200803022235
C        16.90857681715624    2.99061733829125    3.38064201809806
C        16.42999998991361    4.07565584768978    2.63825652406135
C        15.29676707882646    3.96468707114412    1.87673252381140
C        14.57293692177611    2.75138333961971    1.81344877556931
H        16.57745605184019    0.96018313295090    3.92517844573203
H        17.80262372718793    3.09565749281470    3.97332870082591
H        16.95972448977134    5.01582057647164    2.66607763444911
H        14.91537689840885    4.80163285913145    1.31302008683366
H         9.94852098799177    2.06198108230268    3.92679687212018
H         8.37901986801281    3.93998725556218    4.18505093933396
H         7.97469918446634    5.49963084964622    2.31202752126379
H         9.14406502863844    5.16383167349372    0.17312577642447
H        10.52351879366251    3.93392560741938   -1.21520421725705
H        11.94939888096592    3.22567010094001   -2.63345355286451
H        11.70619295982494    1.47343161515505   -2.61779060206608
H        14.06480756373747    1.88412604132944   -3.15482290442042
H        14.21912162659739    3.01113357394868   -1.78429805866914
H        14.46705948258209   -1.48922368971242   -1.35612489579660
H        14.19401154563753   -0.67015904748003   -2.89376673828664
H        11.80896409221210   -0.65234033035716   -2.61344001399966
H        12.28817014907109   -2.23178821216713   -1.99699251293868
H        13.20643983142637   -2.28244187893534    0.42291903136689
H        11.62288877029872   -2.71795019370106    1.11249804434127
H        11.70004394921105   -0.83395479335156    2.65835314476139
H        13.20750374829961   -1.76106064391781    2.84766936626356
H        14.69181951751558   -0.28984565942485    3.36698311025581

