55
CSD_code = YEMFUU | q = 0 | S = 0 | Stoichiometry = C21H25ClN5PPtS | MND = 4
Pt       -1.49243656863135   11.73872726748038    9.55600862523233
Cl       -2.72746208779185   11.91266564329100    7.57869294037736
S        -2.90966630042093   14.37184061595433   12.91168149034468
P        -0.36383507032809   10.18315008742198    8.37336268931284
N        -2.55097912018380   13.15155829393129   10.65660870868163
N         2.31380737333928   10.06494774919208   13.18228902003365
N         0.02443789606636    8.69633173337965    6.07471260560595
N         2.02439351424320    9.29944294881517    7.30746466526175
N         0.52588633393607    7.57723866935391    8.16740634326809
C        -0.45135884530117   11.60448112648741   11.28003549781546
C         0.64139871575793   10.83002398917861   11.61439936585625
H         1.05810589802344   10.17736456429143   10.86541381609108
C         1.23359444079332   10.85075925435725   12.89212389297503
C         0.67988890399828   11.70482279729174   13.86441765712018
H         1.09942593124521   11.75809397225977   14.85466201776335
C        -0.40143073652695   12.49262574766747   13.56173619628913
H        -0.82011700017340   13.15097551146799   14.31036145182911
C        -0.96845808795633   12.45230515528761   12.28771345644717
C        -2.08104918258675   13.24012099717226   11.88414484024346
C        -3.96725979192825   14.75150035409038   11.57991967158007
C        -5.01492849534560   15.65445653364114   11.56946144639647
H        -5.25630609355953   16.21861190720750   12.45674290962183
C        -5.73171724342902   15.80657867909161   10.39888863279234
H        -6.55466916932659   16.50418827610671   10.36439878134648
C        -5.39864013726772   15.06767347403166    9.26723307652444
H        -5.96937259707273   15.20075662466810    8.36077555864695
C        -4.35464766244364   14.16730318553054    9.27522335917349
H        -4.10295842936042   13.59702215443853    8.39583942989768
C        -3.61682043804578   13.99223526410556   10.44525189868293
C         2.91432796832075    9.23085572256815   12.17207105577077
H         3.80173772606276    8.75066072180863   12.57722657435294
H         2.22648203664235    8.44562294304614   11.83858818361037
H         3.22032228125187    9.82343552852456   11.30466909605505
C         2.86190533853444   10.03751352868490   14.51650758074779
H         3.65943462771732    9.30051187090136   14.56816185119015
H         3.27825277844776   11.01066304382886   14.79541184026076
H         2.09795873330163    9.76132503156939   15.24876058511685
C        -0.83495872076215    9.72241942535805    6.62946841720067
H        -1.87131232964741    9.36920702487175    6.62147883401201
H        -0.78468701656034   10.61547774080800    5.99821797915764
C         1.45334181705139   10.42565061693789    8.01888541113980
H         1.56572584358500   11.32724428524766    7.40572933350710
H         2.00939902289619   10.58222143270586    8.94738874109682
C        -0.28303234118784    8.43115732646633    9.01433226957336
H         0.11792710129558    8.41120449359736   10.03131000038342
H        -1.30334965886519    8.03213168930377    9.04982802803992
C         1.40713310577562    9.12839086189656    6.00047074056993
H         1.97504217372572    8.36807822718636    5.45442021821836
H         1.46016939816383   10.07364073036151    5.45450821326061
C         1.89288627397237    8.06014063762429    8.05645771077006
H         2.30352455254262    8.20439582983152    9.05972509168944
H         2.47930618816453    7.29251527984952    7.54091086701375
C        -0.04338095345421    7.46159351679585    6.83289974671342
H        -1.08673324764895    7.14715480467743    6.91647070986668
H         0.51845135093531    6.69458510829234    6.28993087547497

