47
CSD_code = YEMFII | q = 0 | S = 0 | Stoichiometry = C19H19BrClN4PPtS | MND = 4
Pt        2.27597919921375    1.32217651425415    5.41483620743959
Br        0.96559436891966    3.15828117695133   -0.08225577261543
Cl        3.38644672413311    0.18179197734903    7.09408813464518
S        -1.01363236818404    4.04274323159988    6.83845814748576
P         3.77243482591109    0.27505406678096    4.07951540856371
N         0.90298346662032    2.32040651351728    6.63250366238106
N         5.93548236141358   -1.40111630496820    3.73514760861329
N         5.78338716637819    0.48055110503160    2.21372030062502
N         4.27511380830113   -1.41498203130766    1.96871936052679
C         1.29874919447774    2.35161427102540    3.98554788173525
C         1.46553778729186    2.36951654885747    2.60615808123580
H         2.20837400002186    1.74644276704817    2.13162643955644
C         0.68168357708183    3.18336327616467    1.80576831782118
C        -0.29787181938588    4.01466594651405    2.32734836373369
H        -0.89108536815781    4.63992879003713    1.67893255985019
C        -0.49223350740561    4.01692348476851    3.69238580976529
H        -1.24847286108167    4.64958623035450    4.13465499478003
C         0.29194533874924    3.19788098599610    4.50261755498671
C         0.14383014677923    3.12716603874246    5.92771331248965
C        -0.42898759524443    3.27284382354711    8.28523421662742
C        -0.87172522799823    3.46674445649643    9.58239018123070
H        -1.66691441591065    4.16573964236545    9.78803284058519
C        -0.26747716738769    2.74217020663583   10.58983533673906
H        -0.59360907124674    2.87443052666405   11.60998570129900
C         0.75629124224897    1.84302549028420   10.29956661112728
H         1.21402223362280    1.28521077976391   11.10191054018074
C         1.19971001964614    1.64781291286818    9.00960235220249
H         1.99411221005643    0.95307078701959    8.78903118510572
C         0.60841660395663    2.37013616544797    7.97322835498799
C         5.08197382194301   -0.85708929460792    4.76991110324959
H         5.69366622489856   -0.30139667891156    5.48846884264700
H         4.59787263734216   -1.67834806430057    5.30887506717327
C         4.92764422509174    1.30737092240395    3.03787651473009
H         4.36673669457212    1.99219155975747    2.39595294517577
H         5.55105701656250    1.91013587552463    3.70858591850016
C         3.17513657972065   -0.89609515845013    2.75334375062608
H         2.65665461728515   -1.73120636700569    3.23860813120511
H         2.46319407088281   -0.40183104706521    2.08657122282365
C         6.65308862069713   -0.36202909969350    3.01903792926261
H         7.37441068354241   -0.84281258187849    2.35084859590617
H         7.19264877408566    0.26202539157089    3.73605940531290
C         5.01887949511096   -0.35701169197418    1.30314034740609
H         5.72095361320258   -0.82568461526041    0.60664183242389
H         4.32448789835251    0.26897281736577    0.73675721875606
C         5.19028357896914   -2.20139380198712    2.78041919718336
H         4.62518943444010   -2.96794708043999    3.31682158720879
H         5.90563714048927   -2.68873046486139    2.11057669670498

