37
CSD_code = YEMGEC | q = 0 | S = 0 | Stoichiometry = C10H24N2Pd | MND = 4
Pd        6.71485767852266    8.60407210887755    1.85931231750942
N         8.83850727021489    9.26273156585280    1.28451303227043
N         6.27616807720622   10.37265002375611    0.46079996433513
C         9.18244890554839    9.96449122619741    2.51953462090068
C         9.83949328282236    8.24428004875338    0.99917684404932
C         8.74776816914134   10.19218577203943    0.16023652997284
C         7.52022659943815   11.10719934241973    0.24005534979873
C         5.21236639976274   11.30428939954243    0.80855958548694
C         5.89897390471611    9.60964582501280   -0.72725414248417
C         4.83282535957197    8.16618132496807    2.49210245601596
C         7.12994037875823    6.93389627844846    2.94103085971592
C         4.70824974143265    6.75264482452613    3.07064352828154
C         5.98231547053791    6.52285513014079    3.86944015231623
H        10.10450411972240   10.55773460927033    2.40269138135734
H         8.36423619863129   10.62639231460730    2.81924628679691
H         9.33309315868856    9.23562150886769    3.31753237865105
H         9.55464170555245    7.68341579634523    0.10811723988172
H        10.83404703185515    8.68858744841836    0.83571171605078
H         9.89818264442582    7.54709478168877    1.83379324305706
H         9.65096373783713   10.82770361609007    0.10559222807031
H         8.70201158947467    9.60623717609775   -0.76245752293704
H         7.64900927262671   11.81310182424022    1.06580124069551
H         7.46522272273563   11.69565636788412   -0.69454436555829
H         5.47093509050569   11.83767773977385    1.72403941964632
H         5.03988938448407   12.03958837488788    0.00671206288273
H         4.28955179295395   10.75395749290217    0.98598697171601
H         5.84810021997676   10.25357097993477   -1.62084920497090
H         6.61842987537471    8.80418271471199   -0.90410760533044
H         4.92002763689911    9.15499820214609   -0.56688925059992
H         4.09372993109186    8.31844771359533    1.68661145028220
H         4.63815385245460    8.90694620895801    3.29218849740388
H         8.06595400036182    7.04943684726444    3.51435004873108
H         7.28139529844341    6.14696634125590    2.17656921043948
H         4.65539801066742    6.02224984043320    2.25773921248777
H         3.80219006575952    6.64425448638455    3.68198987997006
H         6.08742924292649    5.48262805278191    4.20649146159014
H         5.97356217887790    7.16472669092539    4.75563292151250

