35
CSD_code = YEMGAZ | q = 0 | S = 0 | Stoichiometry = C10H10CdN4O10 | MND = 6
Cd       -4.14871608721939   -0.00017313495945   10.72251569298396
C        -6.85354463529293   -0.71950440850389   11.41723046172874
O        -4.52734651673581   -0.11305202582893    8.30969567477614
C        -7.87886920178467   -1.61572292813659   11.64049035627132
N        -5.76662217772493   -1.40562793167982   10.95602824695198
O        -9.72537706503858   -0.32429440762082   12.43343927550554
N        -7.37397205684288   -2.84172703774136   11.30465148734775
H        -7.91894204203091   -3.69045832165881   11.38116996747946
O        -9.94874201065405   -2.52558946361876   12.18770998471600
O        -5.66690166881168    1.31646932117781   11.41230246539957
C        -9.29105781718398   -1.51306881438188   12.12000151800734
C        -6.77821268195328    0.77243482186156   11.64439432234375
O        -7.78957776098222    1.34026254912203   12.06882894781209
C        -6.10623154306146   -2.67359853633331   10.90233165315266
H        -5.45571924525009   -3.46620674568074   10.58297847309233
H        -3.87615568056173   -0.81934540235102    8.19087724928950
H        -5.34333110044434   -0.41009544807693    7.89237108125861
H        -9.02802381865703    0.41676089003736   12.31741436807096
C        -1.44405897016371    0.71951219018838   10.02739388101012
O        -3.77000521747759    0.11236090813401   13.13539346518051
C        -0.41882109898374    1.61585139605651    9.80421687298453
N        -2.53102431767292    1.40548253417663   10.48871512542197
O         1.42775683206907    0.32463713827557    9.01108108570215
N        -0.92385248013147    2.84178134955700   10.14010859497758
H        -0.37897321836502    3.69057500997855   10.06362558985261
O         1.65095164054782    2.52593741638413    9.25699314759856
O        -2.63047047456609   -1.31660245613277   10.03244825348345
C         0.99337438595239    1.51334872129254    9.32468721317856
C        -1.51933746703900   -0.77237901324365    9.79989286197723
O        -0.50783351370543   -1.34015743793238    9.37577720683218
C        -2.19156214861482    2.67348647798554   10.54246628557775
H        -2.84216794920200    3.46599192332267   10.86188293810159
H        -4.42134746415543    0.81894274226269   13.25326690017308
H        -2.95392934656786    0.41024832600278   13.55230918082483
H         0.73044391830301   -0.41648020194179    9.12701017093839

