69
CSD_code = YEMNAI | q = 0 | S = 0 | Stoichiometry = C28H26FeN6O8 | MND = 6
Fe        5.73536003845202    5.60152175884134    4.81764039083911
O         4.22510727515646    4.76609522004944    5.86850644044990
O         7.21610333912106    6.51131721897254    3.77780860743465
O         7.57143061020738    8.03585282784898    2.18638974663308
N         6.97877358452301    4.49683751989717    5.72609665150297
N         4.57402785737695    6.83922101477443    3.71853891732639
N         5.62975841473822    6.98592222286811    6.27835460782942
O         2.89836533811407    5.12174891061399    7.62914652979983
N         3.28932936843993    8.17538944551533    2.56158932316605
H         2.48596680031275    8.66284146672878    2.19112066837080
O         6.09458327496305    9.61044144019395    0.74876018421876
H         6.75491013536328    9.02195551690935    1.26176939669635
N         5.74362884401612    4.22571984075889    3.50165219077485
O         3.91470100593982   10.03735679109574    0.59300847453448
O         2.68260951349182    6.94979451551981    9.45682631904203
H         2.69863177538936    6.17843582011351    8.78548738386484
C         5.36313636407790    7.57236361849301    2.87444206213201
C         7.31816390184187    3.39997677535929    5.01286724122020
N         5.47064346594426    8.56878017981029    7.77597826799932
H         5.62427614289479    9.41141037958601    8.31122254026507
C         8.26227770489355    2.44122038986151    5.42792099111304
C         3.32542057346518    7.22385684230466    3.51782862785675
C         4.61139329713074    6.66770528961592    7.13546230885642
C         3.83988853768308    5.41220792647689    6.87690200094715
C         6.63512618184352    3.24978714932742    3.78384922439719
C         4.56927243895982    8.42115538332794    2.13726241081885
C         6.13154766072138    8.14050909983177    6.68004790801255
C         6.89671774844036    2.14474011352972    2.95114653957986
C         7.56704702164095    4.64724734948222    6.90240742680228
H         7.27664760262229    5.51021208846346    7.47949964448209
C         8.51489743738921    3.75667036799926    7.40443136523513
H         8.95551379113014    3.94885557219423    8.37004576759720
C         4.49619946687303    7.65615658612674    8.08639592254564
C         8.88019806568458    2.64823774684454    6.67151304784676
H         9.61548372895794    1.94870470891802    7.03806820879744
C         4.84160384312121    9.43380247579852    1.08346813822714
C         2.12156835591752    6.69406937538082    4.20179170592583
H         1.25698748547375    7.30901916822931    3.94306178367615
H         2.27197324634512    6.74633618769298    5.28152608977095
C         6.84365988487107    7.36387489765632    2.92996197875115
C         8.51747819736039    1.33526836364294    4.56641706549100
H         9.24649467677336    0.60378888161909    4.88215507324213
C         7.86618943978107    1.19421233309768    3.38339557649321
H         8.06963318566301    0.34954540186000    2.74203025963211
C         5.26575243080923    3.06074291600595    1.46749490061649
H         4.68992909160702    3.03912196080983    0.55569289955298
O         3.73325297814650    8.85483247260438    9.93248789096805
C         6.17518598789200    2.06471426759184    1.74949237537379
H         6.33577405115516    1.24127315554611    1.07085145775689
C         5.08028364396348    4.11486168963222    2.36148645129034
H         4.36762582400052    4.89305573177015    2.13839131598052
C         7.26637263475132    8.86829509154321    6.06099937066135
H         7.34914936131367    9.85901043283742    6.51260170298865
H         7.07242630199846    8.98450587202386    4.99393698105704
C         3.59339065046408    7.86680293898440    9.24828458175335
C         1.85695715121577    5.22685229591288    3.83297444907912
H         2.75155652676221    4.64959347219300    4.06745981504457
H         1.65570047118901    5.15008885948632    2.76140440382614
C         8.58432568308166    8.09839402695087    6.22660446115302
H         8.45463266149635    7.10651186895176    5.79268813888850
H         9.35552253017397    8.61446333091993    5.65449354816153
C         0.68276946724518    4.67478797034109    4.62911553110971
H        -0.21567559837690    5.26579088409244    4.46219634975715
H         0.91720149160161    4.68558684651501    5.69026484609180
H         0.47957738814869    3.64857910484670    4.33497720646740
C         9.01129647409691    8.00235294453556    7.68537954295727
H         9.18855649722137    8.99317728805977    8.09954239483035
H         9.93099709878767    7.42965490617144    7.77122356870069
H         8.24911257815276    7.51388348844729    8.28946080575064

