103
CSD_code = YEMREO | q = 0 | S = 0 | Stoichiometry = C44H45B9ClNiP3 | MND = 4
Ni        4.99799942641156    3.81121976143559    3.91715812941197
Cl        5.39746500417390    3.82675972877090    1.81671643750096
P         4.69200620872738    5.97011559286323    3.78889820746886
P         4.63606496635846    4.17459813746460    6.04812536186256
P         5.40771159412723    1.63793787708742    3.83462740785490
B         0.93034337042090    6.51741664184142    5.93655575098719
H        -0.21928093316043    6.32683130814905    5.77034831066777
B         2.15633872327208    5.51431394237216    5.19752272793319
H         2.10609346675815    4.56581590243887    4.48593189821221
B         1.89699365220132    5.47635787960374    6.93456063228907
H         1.59097668198571    4.47712059590884    7.47831365441924
B         1.63782943140424    7.12950036368916    7.49978534567236
H         0.94520574678949    7.33096350049772    8.43356581377533
B         1.62975256384508    8.16115249896278    6.04870002852908
H         0.99313378301129    9.15004732697698    5.98585412963043
B         1.97361246686305    7.17557261960895    4.65579093168078
H         1.70273453426916    7.36294168785617    3.52492071044180
B         3.26571875392428    6.37125452413842    7.68787806655471
H         3.64501148755824    5.89984563482635    8.70696151808021
B         3.05883947336757    8.21817109739736    7.12680657291575
H         3.20866221497738    9.16445777271414    7.82346567615203
B         3.29594507078335    8.11120656381825    5.40917786188858
H         3.83008055849083    8.91059923371462    4.71438534987009
C         4.16665974721882    6.77135931148940    2.24679273281483
C         3.18608963350750    6.15230116748900    1.47856064546270
H         2.80113391840655    5.18809358805050    1.78278169411629
C         2.71674420617888    6.75971325084781    0.33056247010222
H         1.95838051442708    6.27458767683676   -0.26598217037755
C         3.21997145471249    7.99244567510791   -0.05359824386231
H         2.85400303939639    8.46905046974353   -0.95110051066121
C         4.19248169424271    8.61356845307411    0.71151160184465
H         4.58267078268301    9.57565384076721    0.41322749906353
C         4.66929484860288    8.00710054235316    1.85999939630693
H         5.42846962704153    8.49381037453409    2.45488671883138
C         3.56192383124548    6.54060009503458    5.08473091906698
C         3.52241855280462    5.58976206734268    6.27627737476458
C         6.32741376630641    6.72478066748890    4.08756596248627
C         6.61173304496119    7.50064205238324    5.20453145118156
H         5.83308418355895    7.73634188932368    5.91396009930636
C         7.88964384830951    7.99519078816935    5.39654580125231
H         8.10159089618408    8.60190862219862    6.26457603572131
C         8.89194941471174    7.71722231159795    4.48305354799887
H         9.88830600739524    8.10404553415838    4.63894648840780
C         8.61354797521467    6.94540620499586    3.36615758563799
H         9.39191443516370    6.73034937917498    2.64853741208232
C         7.33921698622962    6.44980053104570    3.16952351871120
H         7.11412938450940    5.84542809041383    2.30088101623584
C         4.10954269753989    2.95211865715773    7.29183745491842
C         2.99340088257173    2.18513574563090    6.96788077727770
H         2.53248509353428    2.30468067935580    5.99602938714611
C         2.47553439950815    1.28335912145226    7.87549570360352
H         1.60576752672008    0.69727734525688    7.61894952627934
C         3.07209442882934    1.13634580375220    9.11720224965978
H         2.66610225667287    0.43626814539357    9.83197061693852
C         4.19193155152753    1.88344102089526    9.43874524741079
H         4.66149686175351    1.76397703451345   10.40423874168285
C         4.71502629959083    2.78616897801563    8.53016684066677
H         5.59608148329633    3.35550444257547    8.78592772421984
C         6.31408254617643    4.66772550079375    6.60966043360920
C         6.58637445636654    5.41648008473895    7.74966365765401
H         5.77965666618433    5.74976961129938    8.38337554399284
C         7.89145425848173    5.74894618045877    8.06872034486475
H         8.09117648759845    6.33184209159866    8.95598759387003
C         8.93794061952159    5.34294943452923    7.25807034779848
H         9.95353220642163    5.60774404092224    7.51151589546720
C         8.67793478454611    4.60241672168663    6.11680601018376
H         9.48689549122630    4.28904651668693    5.47359250198640
C         7.37544687198482    4.27221126337915    5.79888131865331
H         7.17081740549628    3.70189463995382    4.89127606234420
C         5.19038999379433    0.50404860614490    5.25299864191922
C         6.08873970277949    0.63536934637702    6.30882520204367
H         6.86966558667155    1.38388226979121    6.25090285057923
C         5.99284200985590   -0.18511998881637    7.41455817345697
H         6.69738372397143   -0.08119056670274    8.22643769847162
C         4.98991986125093   -1.13923672499312    7.48206705412608
H         4.91389855411389   -1.78210512726210    8.34608906299042
C         4.08368992947286   -1.26343494566715    6.44356066580047
H         3.29915895259792   -2.00404915441137    6.49676640366167
C         4.17777349666245   -0.44285278978153    5.33322187519132
H         3.46769803057760   -0.54401943779456    4.52447430428889
C         7.01872961238771    1.01690908604346    3.23972246245306
C         7.33641735989944   -0.33493816835968    3.35518886927331
H         6.63283266592948   -1.01951688686092    3.80881122961363
C         8.55575212289045   -0.80261652982773    2.90237937873174
H         8.79165281656278   -1.85338950369349    2.98934171237610
C         9.47428010039651    0.07110270195211    2.34241148922036
H        10.42607100846097   -0.29880618064508    1.99072022002103
C         9.17020821636981    1.41743393231063    2.24030214671545
H         9.88459839686736    2.10319231336973    1.80924576681165
C         7.94904541298579    1.88939849270712    2.68782622683241
H         7.70919326205058    2.93884203027114    2.59125018106439
C         4.18324974810767    0.99835207862305    2.64638717790202
C         2.96053201425785    1.66476976152690    2.63331338340793
H         2.81988183034601    2.52000799656776    3.29409190388477
C         1.95231011400205    1.26712713901263    1.77816896676015
H         1.00769296147854    1.79084649331963    1.77120697157286
C         2.16512915251151    0.19929356163881    0.92012549002213
H         1.38315465704799   -0.11286994094965    0.24392625725157
C         3.38483256399637   -0.45658535482430    0.91716560798147
H         3.55330526732674   -1.27849676542629    0.23664196467380
C         4.39646435194122   -0.06138988200959    1.77610368367883
H         5.35094426222881   -0.56680919056316    1.75743503433170
H         4.02747694829216    7.44088549714454    7.45805838991490

