103
CSD_code = YEMROY | q = 0 | S = 0 | Stoichiometry = C44H45B9ClP3Pt | MND = 4
Pt        6.12848404676179    3.28795013506944   11.53345127676771
Cl        6.51267353121255    1.07117484461109   12.26459584836148
P         8.33911174573312    3.85346938989132   11.77511753922867
P         6.05151326792715    5.50735833236448   10.95330899197430
P         3.92742745572677    2.56636257352417   11.44746986781203
B         9.16158791669299    5.60141633946505    7.87942916472150
H         9.28580793492667    5.24551139292292    6.76422238219793
B         8.12257550961457    4.77267857848723    9.01164976808946
H         7.41826507013806    3.81934731108320    8.91663460743650
B         7.71356069041630    6.38038508179482    8.43269029028586
H         6.70700164409356    6.57218265454428    7.85058554837549
B         9.18658020445297    7.34881148449425    8.39392333428600
H         9.30494377891036    8.20956603228269    7.59514026226331
B        10.52482508326554    6.25620497428380    8.84118210991332
H        11.61230932973734    6.40145392263207    8.41203828529138
B         9.86591227725070    4.70025152661362    9.24070694623996
H        10.37749139394914    3.63871700456745    9.21767530720827
B         8.04672300170972    7.51334701419055    9.79293730655477
H         7.26492692299115    8.40048107025931    9.88189093635417
B         9.97821500245979    7.47498258965748   10.03666654682733
H        10.65826212699447    8.42531579444205   10.23272137543399
B        10.24860661651827    5.84499233435281   10.55992153722520
H        11.05222514799046    5.47483609514503   11.35258734429805
C         9.58135108859200    2.54042231712261   11.74623330179076
C        10.67072333952403    2.54211630618969   12.60836237949009
H        10.77989284063229    3.33131967839900   13.33886245936928
C        11.61176414085412    1.53148956817400   12.52537090219804
H        12.46017803496379    1.53259279211131   13.19400131420635
C        11.46774506441459    0.52029248506838   11.59011948553196
H        12.20308978028182   -0.26879804675002   11.53269331067995
C        10.38126701017785    0.51726362069336   10.72946739417758
H        10.26922276659064   -0.27331162797423   10.00224492534131
C         9.44095443313428    1.52580650583353   10.80469171636850
H         8.58587998205624    1.53044939225826   10.14192769395537
C         8.79856732910831    5.13166025003350   10.58768675859359
C         7.60256519947580    5.98751260585190   10.15142447496421
C         8.46721104886921    4.54036061613042   13.45668527361640
C         8.02682578197542    3.72090231119463   14.49468346837659
H         7.70577658783320    2.71167764183871   14.26734361966942
C         8.01322797811403    4.18943999765848   15.79371485352403
H         7.67448474909777    3.55049235959022   16.59632750927876
C         8.43361162122474    5.48239816413450   16.06534551635536
H         8.42051280539311    5.85204298297012   17.08019438241655
C         8.87346378227727    6.29876694754387   15.03752300180585
H         9.20579444489817    7.30403583066404   15.25087619302182
C         8.88954951789247    5.83392609272377   13.73373325332140
H         9.24745054205387    6.46679820076576   12.93498402976439
C         5.89470040561115    6.38739141296297   12.55275456449411
C         5.34486601088178    5.66502763354995   13.60887109433050
H         5.02651138063412    4.63908194708001   13.44133551816437
C         5.20808524183255    6.23075350907973   14.86119659557755
H         4.78321603128941    5.65359462568231   15.66917516334329
C         5.62325743719474    7.53464633494916   15.07611165540499
H         5.52276589590501    7.98059269146659   16.05426501373521
C         6.17206556024518    8.26238393553338   14.03407717289564
H         6.49885244141794    9.27856875235417   14.19889516119578
C         6.30951234263174    7.69527040229589   12.77897771546649
H         6.74681888926758    8.26887434024375   11.97704451466953
C         4.71860665899322    6.18937628787214    9.92899755519013
C         4.11500860467983    7.41544134760622   10.17651630330777
H         4.38742851464367    7.98643805040569   11.05196405734934
C         3.16182002392219    7.90239399587311    9.29984140624766
H         2.69788048803427    8.85895475167980    9.49092122159750
C         2.80609367001828    7.17279642187124    8.17856978105057
H         2.06636378550630    7.56088454945877    7.49456364588729
C         3.39840348596624    5.94376938724073    7.93344983276040
H         3.12039654367671    5.37314785839018    7.06015779918832
C         4.34856054991561    5.45407539674444    8.80591597804615
H         4.81968075026275    4.49661601870862    8.62452120706516
C         3.16328520990182    2.17914309557858   13.05311031428429
C         3.38788206613785    1.81578082667849   15.41935282379852
H         4.01066554591459    1.75666754828045   16.29972792725429
C         2.02377377213252    1.60030898493328   15.51767250088038
H         1.57881338881778    1.37143434792142   16.47478315217890
C         1.22667012272421    1.68028041532378   14.38638366276427
H         0.16181422782663    1.51452715595944   14.46230331246424
C         1.78935456765753    1.97361123291989   13.15823925689627
H         1.16270260736207    2.05134655413473   12.27981160999951
C         3.95686506611824    2.10447237107747   14.19193907859454
H         5.02507032644429    2.25361702151370   14.10900978126924
C         3.88691380706284    1.02632978338228   10.48598699296547
C         4.75238761810657    0.97483178316239    9.39569804316587
H         5.39221915885975    1.82887692723773    9.18839791775044
C         4.81427921937545   -0.15757997731350    8.60808571507152
H         5.49068923923257   -0.19669486914687    7.76706028250235
C         4.01552612890383   -1.24968036360600    8.91128517149886
H         4.06813761638945   -2.14101601324147    8.30382722163735
C         3.16286732356934   -1.20604701730418   10.00146507409230
H         2.55258051929623   -2.06370974103761   10.24424416325881
C         3.09474382221354   -0.07127691001748   10.79202807827398
H         2.44179122362503   -0.04782875216555   11.65285134007859
C         2.58688351288584    3.54973107219585   10.69517315918945
C         1.93043925908562    3.17184444386429    9.53104491563948
H         2.20209637908951    2.25181162701552    9.03269254742677
C         0.92381438249589    3.96900276156419    9.01471723773191
H         0.41152099993840    3.66715266060636    8.11301215991111
C         0.57134051362739    5.14654944177937    9.65060534236665
H        -0.21603646710268    5.76463939550186    9.24634624031515
C         1.23147990524653    5.53402217800373   10.80623471045353
H         0.96176372189571    6.45486865166140   11.30136912520259
C         2.23736979855800    4.74275696829166   11.32288146971312
H         2.75770894328644    5.04178842981454   12.22422466035461
H         8.93965219185035    7.69080484543576   10.76396825904681

