93
CSD_code = YEMVOE | q = 1 | S = 0 | Stoichiometry = C40H44CuN8(1+) | MND = 4
Cu       20.47203388543299   10.98898914511221    3.94328189999404
N        18.98861227362157   10.32999878134968    2.61443122329118
N        17.96082799646126   11.16281376933325    2.47806663175642
N        19.03597801936939   11.64036098523730    5.32571542641676
N        18.01691061100761   10.80343492491249    5.49867552709176
C        20.31100081576220    8.40365123639289    2.10008295976902
H        21.08338166766896    8.94239384698400    2.64476543821673
H        20.65627645113712    8.22388245399871    1.08261492297903
H        20.14256210903300    7.43431613384528    2.56661099475611
C        19.04237638532188    9.17910009459205    2.06356798308687
C        17.86023944245375    8.57183686074001    1.37718716316226
H        17.29982996353051    9.34316279723119    0.84923166895050
H        17.19235996253532    8.12389545747425    2.11536757525255
H        18.16848136401380    7.79948188065566    0.67942624710554
C        20.36876583599187   13.57081232605497    5.79495881810988
H        21.12440721280819   13.03295728591996    5.22626853010871
H        20.74730364592629   13.75586690904122    6.79955765207800
H        20.18079254264610   14.53772140971522    5.33078240271861
C        19.10532981175183   12.79041551563576    5.87669403556897
C        17.94651462213399   13.39090732327795    6.60731094268109
H        17.41157674199072   12.61624767254678    7.15644452458097
H        17.24806848001154   13.83394143016344    5.89492035942001
H        18.27602260972820   14.16563312118999    7.29257638895309
C        17.08370812393190   10.60001325414769    4.64608394071001
C        16.09656866855862    9.55836939723599    4.89326921079413
C        16.12326075012693    8.83171370794886    6.08609825405423
H        16.88144035386204    9.06448325513620    6.81763066823667
C        15.19187451124525    7.84026112186183    6.31742179648463
H        15.21559562989086    7.28549360181123    7.24307343484617
C        14.22319994381481    7.55789246749251    5.36533839428428
H        13.49383852130548    6.78426337667914    5.54944425717889
C        14.19142801055766    8.27147560512210    4.17782458264311
H        13.43855243239448    8.05329713624626    3.43577381489227
C        15.12063831010821    9.26578321117322    3.93828731802104
H        15.08781157555900    9.82147929989138    3.01203628578034
C        17.05873019866083   11.36357086480787    3.36416435044190
C        16.05768939613100   12.39949809787565    3.15159128848608
C        15.11598547197354   12.68906459358173    4.14123587382637
H        15.12128660083418   12.13640545797127    5.06989692578742
C        14.17170892336645   13.67621742335819    3.93295867322830
H        13.44526505493455   13.89196289762677    4.70159379498622
C        14.15434629638669   14.38550740988514    2.74256915821395
H        13.41294185308933   15.15307171987265    2.58276024377593
C        15.08925275448288   14.10655819372189    1.75633370636859
H        15.07486841581486   14.65812019677462    0.82857728471873
C        16.03546965410117   13.12237385542179    1.95637258304643
H        16.76774947766418   12.89215994526884    1.19812965949197
N        21.95602146275280   10.33049240601304    5.27166261591657
N        22.98393146615078   11.16326768767535    5.40751345272448
N        21.90753783600849   11.64079268435732    2.56041550909139
N        22.92647955511877   10.80384860675593    2.38692528059250
C        20.63383140928749    8.40423463544059    5.78690421097305
H        19.86124735838799    8.94282947348486    5.24236041156513
H        20.28892531526996    8.22472291216233    6.80454393837991
H        20.80210631957327    7.43478119905740    5.32056380586025
C        21.90246691132879    9.17969225753262    5.82276519772978
C        23.08487833490680    8.57257156633587    6.50879689056296
H        23.64539957609696    9.34398737316154    7.03650546259983
H        23.75255487902504    8.12463910492868    5.77042692801240
H        22.77693655361179    7.80024229606554    7.20671787934720
C        20.57459835177468   13.57136421381019    2.09215044213110
H        19.81920595238624   13.03343097707504    2.66109575559135
H        20.19563029011828   13.75652263562147    1.08773333416140
H        20.76276674595361   14.53822309122653    2.55635074039451
C        21.83800613676523   12.79098856157473    2.00977050058493
C        22.99656915251238   13.39164323643344    1.27887678313172
H        23.53086478354379   12.61721792353506    0.72877723516211
H        23.69565381160836   13.83383189231404    1.99117263569825
H        22.66690216369019   14.16703865442971    0.59444479892121
C        23.86003252951084   10.60028340601991    3.23910378651638
C        24.84693443967651    9.55852190575897    2.99148015642312
C        24.81955445147048    8.83179570851843    1.79870888362197
H        24.06106706731491    9.06465329886919    1.06752351273962
C        25.75069653874847    7.84020606275161    1.56698234251938
H        25.72646962578660    7.28541538521874    0.64136257750996
C        26.71981415103121    7.55777570639514    2.51859633674951
H        27.44897107435352    6.78403237343920    2.33418362957082
C        26.75226643882932    8.27142659887341    3.70605486679877
H        27.50545474820121    8.05316589650938    4.44776487197685
C        25.82329621438328    9.26586364994510    3.94599835950938
H        25.85664008773664    9.82159469858414    4.87220772703919
C        23.88566842310463   11.36384245004206    4.52100839128370
C        24.88698359163384   12.39961270792772    4.73306634542117
C        25.82805842230799   12.68917200651809    3.74281807095156
H        25.82204134090241   12.13663795451121    2.81408714428908
C        26.77263067173874   13.67614792800365    3.95058301965029
H        27.49853483533407   13.89193618162391    3.18144886566528
C        26.79092593295240   14.38525889596460    5.14106575586311
H        27.53252466227361   15.15272375659507    5.30044997080508
C        25.85665338248007   14.10631483920004    6.12790251855315
H        25.87178664180443   14.65771531585714    7.05573952948258
C        24.91013979583221   13.12230903977627    5.92837477866278
H        24.17837718759717   12.89207339176798    6.68710993292426

