41
CSD_code = YEMYAT | q = 1 | S = 0 | Stoichiometry = C18H17ClN3RuS(1+) | MND = 9
Ru        1.84769222231571    2.87776186318242    0.36756576949125
Cl        1.20851565402129    4.86824957470381   -0.67690973967222
C        -0.19469748222285    1.88798201448954    0.74111160199359
H        -1.15214318995090    2.27028539930835    1.07544574350155
C         0.73180159669009    1.36308721380761    1.66680162418369
H         0.49035240242810    1.34943981859858    2.72451114644458
C         1.91422659728514    0.73111804458218    1.22411731516060
H         2.56960476748451    0.24076643544485    1.93348315927488
C         2.18982713946901    0.68145566973592   -0.15422732081374
H         3.06529608717358    0.14591245338297   -0.50451145276066
C         1.26381353044696    1.20049617287122   -1.09276753559627
H         1.42447982367075    1.04970578135408   -2.15329033802881
C         0.07681676581570    1.80213219167824   -0.64130749949197
H        -0.65915218974890    2.15271233840595   -1.35732778087240
N         3.70701171578100    3.51620859645744   -0.17928569048628
C         4.48638929926157    3.44258110349534   -1.24678755053681
C         5.62009508002133    4.25513286755081   -1.04342754149856
H         6.43161349918092    4.38733568656429   -1.72858986022456
C         5.47780865845304    4.85034447877444    0.18523012574575
N         4.29350629660072    4.38416484734638    0.68801971042190
C         3.54177940932109    4.72860198127911    1.77456555995740
N         2.36099197306743    4.16588907866399    1.90159050854076
C         1.67299606575673    4.68155820016966    2.97464458752442
C         0.36328575315808    4.39696446971340    3.35557417615685
H        -0.23101286223175    3.72042167072290    2.76520460875773
C        -0.16166471013495    5.02600565711121    4.46431530191868
H        -1.17728168107596    4.81695036295471    4.76106919900286
C         0.59224642721631    5.93496711927540    5.20457995316132
H         0.15722554515483    6.40966644687302    6.06931176236452
C         1.88387176231653    6.25159321715675    4.83228293423931
H         2.46785484595188    6.96992093400792    5.38395433110736
C         2.40902543823812    5.62758856903022    3.71316954365033
C         4.14266786500313    2.65362299043942   -2.45159457016522
H         4.32813301030029    1.59228498372285   -2.29315801199587
H         4.74730630572692    2.98397329277914   -3.29093495258398
H         3.08985400965900    2.79963744689971   -2.69000014801259
C         6.34310232282477    5.81195043977585    0.89904521270563
H         7.25032540085327    5.97492629366821    0.32483377138859
H         6.61307443926922    5.44176142614499    1.88728300116088
H         5.83558201723874    6.76858960109477    1.02371534707601
S         3.97707838820962    5.87695326678225    2.98599399780951

