50
CSD_code = YEMZEY | q = 0 | S = 0 | Stoichiometry = C20H24ClN2OPPd | MND = 4
Pd        2.83546504502812   -0.74236391548323    7.64420662243157
Cl        1.15173978114373   -2.18636288385752    7.98271594136238
P         4.62606715534980    0.52822488153064    7.26636530394852
O         6.07125489864530   -0.23614212923919    7.08823380955714
N         5.21565835591521   -2.79303940327254    7.81028042898864
N         4.27843514182258   -2.17917783292110    8.53408860205173
C         6.26363638044609   -1.29505975116722    6.17332396414529
H         7.30141054359092   -1.61115006425030    6.32636708194656
H         6.14986441526146   -0.94418742283302    5.13986676196988
C         4.43468333648776   -2.53395269462643    9.79515783887961
C         5.30950642806542   -2.48160281688436    6.41247077708048
H         4.28619136965979   -2.20863198989548    6.08486839806036
H         5.65611099261483   -3.34820259486828    5.84540506476912
C         6.32941513503639    2.03155408201584    8.96696084971311
H         7.12821858673586    1.86245597120611    8.25990595326011
C         5.52217832440910   -3.41928518604359    9.88525790416985
H         5.89900324119226   -3.89401681374123   10.76799170192129
C         5.06612033515042    1.50890650937766    8.71808535099158
C         1.45336794958205    0.59102939784658    6.92737316642643
C         4.00975449409027    1.17135027937349    4.68982383272218
H         3.47683001379619    0.22409492052228    4.75249546602530
C         6.00416989985424   -3.55911274000488    8.59963529173992
C         6.55647318700513    2.74533121107639   10.13043279896029
H         7.53736105274496    3.15283053258354   10.32870439009894
C         7.13104056371400   -4.37067781315716    8.07348246409222
H         6.79009097533505   -5.03992342720611    7.28358609781003
H         7.55241802118312   -4.96877137686344    8.87624577486478
H         7.91691122561847   -3.73430086545761    7.66636939168140
C         4.65635537210341    1.65320314768987    5.82357609125603
C         4.01789364024487    1.90622549378898    3.51885435987576
H         3.51586258845528    1.53198158883957    2.63888499742680
C         4.66545746557707    3.13123874202423    3.48268796721197
H         4.67067246906920    3.71110509506722    2.57155810736422
C         3.52827749930306   -1.98277149537181   10.83572832007500
H         2.73606401304609   -1.41031031220041   10.33290011945508
H         4.07340113525204   -1.32683343286653   11.51457834235114
H         3.07267194508621   -2.78346585808479   11.41486699760303
C         5.53106059629298    2.93719627987418   11.04317081417994
H         5.71576204455119    3.49637066504340   11.94866281050180
C         4.04307889532316    1.68487009171690    9.64530569467973
C         5.29750513048214    2.88279979142822    5.78710453279795
H         5.78283554576807    3.26493265839068    6.67356834473468
C         4.27428471239427    2.40322047012465   10.80411020533542
H         3.48140151728855    2.54184051277387   11.52407514477964
C         5.29735505238015    3.61966195221211    4.61496987096352
H         5.79021221502075    4.58051330256273    4.58497760281830
H         3.06640557500930    1.23726215270269    9.44344371453284
H         1.87481153300380    1.57404601031999    6.68235283249251
H         0.97471774745849    0.17183174591529    6.03420375572094
H         0.68643645741511    0.71016533430254    7.70301834416185

