85
CSD_code = YEMZOG | q = 0 | S = 0 | Stoichiometry = C28H50Cl2O4Ti | MND = 6
Ti        5.73731741693699    7.30040942325368   16.68529854586459
Cl        4.22406492053096    8.98730737547572   17.08301859910231
Cl        7.16960718377279    5.55550537860483   17.13022789655303
O         6.94410266114662    8.22679968381145   15.99232244211824
O         4.81387268962873    6.56659810091499   15.48644318397989
O         4.47759024287009    6.27609905017807   18.22504852163130
O         6.58502553061691    8.02093501086527   18.70529021246105
C         7.68861238090532    9.17387314027964   15.34085480854484
H         8.74748127462249    8.85701627208453   15.40000922864896
C         7.29717812961994    9.36931080514061   13.84715448274606
C         5.77607887992079    9.61416298790476   13.84031987709255
H         5.36752512001112    9.51289612684783   12.83401229094520
H         5.27072455134330    8.88767122788185   14.48630596785425
C         5.62856819078310   11.04633221072438   14.38938076864233
H         5.19222193330282   11.72342274013748   13.65521354014028
H         5.00061425497116   11.06589188760698   15.27966916094740
C         7.07639974856377   11.43193989893636   14.71074879491709
H         7.23117876547473   12.50263137597216   14.84396805153967
C         7.49236348671669   10.59788251403337   15.92944349604904
H         8.40160516731230   10.97394928338983   16.39979620936388
H         6.69738316744621   10.56632513054335   16.67901956519629
C         7.86661071846384   10.78015899023123   13.55586457977374
C         9.38379973832528   10.92185416888145   13.69199652811875
H         9.88452716059474   10.33783188273125   12.92254259798786
H         9.75938600555691   10.60204695536234   14.65718964671717
H         9.66024147248480   11.96569335548215   13.55358039947757
C         7.50772786535988   11.31926532770869   12.16997519429972
H         6.46149473889702   11.18757191468360   11.92266408765069
H         8.10045602798338   10.80937737033550   11.41325548372481
H         7.73759847026620   12.38199881817847   12.11989574311826
C         7.74161512751056    8.20478914150565   12.98394986328747
H         7.36085012013082    8.30152224674430   11.96902085197490
H         7.36156181190972    7.27914508890425   13.42135180117469
H         8.82767801629732    8.14356827066132   12.94628736757718
C         4.47713552318882    6.09879432853599   14.23951545843588
H         4.99118549615528    6.72631083111055   13.48924497854308
C         4.86044058576232    4.60268294114062   14.01913489797060
C         4.30651332040551    3.86313344459429   15.25046752348078
H         4.58877719747693    4.40563819746326   16.15603973013855
H         4.72335066003253    2.85904787522690   15.32362979892442
C         2.78408092755179    3.85148372523871   15.01137292063483
H         2.39493710354001    2.83721506496581   14.91775517862470
H         2.23357588285964    4.34118259716757   15.81480856695622
C         2.63577862247803    4.62425069165058   13.69457887392731
H         1.67588885710306    4.47244198042565   13.20053986456944
C         2.94206631325253    6.09445768691324   13.99768763217108
H         2.66355241882969    6.74865421834956   13.17264296099071
H         2.42586155783813    6.45255130968271   14.89114219473504
C         3.87928648348521    4.17871823846073   12.89837162687392
C         4.05621163136185    4.90894552462458   11.56602581162900
H         4.97855970232077    4.58700210842434   11.08735038116395
H         4.09056269547322    5.98713635532285   11.67078536610875
H         3.22888246724979    4.65880020081600   10.90398408909470
C         3.90506491347571    2.68321004340010   12.57720017713459
H         4.81387593286940    2.43932709873222   12.03147477378539
H         3.05452498006635    2.43122234070900   11.94613377851004
H         3.86805676402129    2.05836039231316   13.46135966728490
C         6.34313297399417    4.39418128134544   13.78552177819806
H         6.66750326562473    4.90728626940332   12.88163052459526
H         6.56954168685384    3.33476830117459   13.68575661963044
H         6.90412704718953    4.78652760234473   14.63454864152854
C         8.00628308977608    7.98430511465127   18.91643951113580
H         8.50876708846399    8.13027264924894   17.95499004354702
H         8.26592428703372    6.98864844456279   19.30035579816887
C         8.32863598854184    9.07541274559922   19.93471152547119
H         9.20038572153620    8.82789540846658   20.53561574029648
H         8.50036447561231   10.02848010960947   19.43285165868415
C         7.03413881693347    9.13313364481290   20.73914750763161
H         6.99260220426499    8.30580975491411   21.44941371363646
H         6.89796976887920   10.07013969648473   21.27341761813617
C         6.00232634066830    8.94402556578527   19.63324813650131
H         5.79569071330777    9.89388194537618   19.12261353129162
H         5.05287632174962    8.52899983652881   19.98245846348121
C         4.83951709589205    5.44718726204780   19.32538520470084
H         4.75504042637518    6.01636427752946   20.26526537141727
H         5.86860929612651    5.11516289331135   19.17187219359978
C         3.81817319489348    4.31406592401621   19.29309259665136
H         3.73807530568403    3.79876688910831   20.24728093055095
H         4.09703462387728    3.59517896221576   18.52248357246922
C         2.53479205733320    5.05539050670844   18.90504066801133
H         1.90378318526941    4.45750055886573   18.25073124445501
H         1.95442340817787    5.31780783248264   19.78945366112853
C         3.04804629353966    6.32792168208156   18.20410365787188
H         2.74339074030533    6.39666869497295   17.15570293864992
H         2.70901157500358    7.23536579503852   18.72320110767654

