86
CSD_code = YEMZUM | q = 0 | S = 0 | Stoichiometry = C30H46Cl2N4OSi2Zr | MND = 7
Zr        2.35232256901331    1.65757388937626   36.21761757619242
N         3.71888551650636    3.31288217825163   35.69496649033255
N         3.21814277941264    2.47293768435749   37.99007537248190
N         2.12971402720221    0.57813180295318   38.12394680164691
N         2.25629919509421    2.54736884853353   34.22205097553782
Si        0.92556855716648   -0.50800129546363   38.72218530250691
Si        1.04186594683909    2.44257286309544   32.99257944542357
O         4.25814379871985    0.57283831588396   35.95540847206299
C         4.07887068429687    4.25800251608411   36.73366730041248
H         3.22111946420316    4.92468256528578   36.94019562866058
C         4.31833605787621    3.39853013570033   38.00312388271285
H         5.25609117242239    2.82629716065213   37.85843590577202
C         4.49673141372607    4.32405548765547   39.20844307873137
H         4.65916025398412    3.73855861316651   40.11543089767645
H         3.59046195970347    4.91864174011123   39.34128986920645
C         5.69817169884695    5.23607561581338   38.95801614283679
H         5.81709702424113    5.92215680963156   39.79919164692175
H         6.60169810422026    4.62395704766519   38.89838605760129
C         5.54578595255617    6.03540540191130   37.66447594505459
H         6.44130991143968    6.63867979073378   37.50056838018602
H         4.69735174574369    6.71677641573571   37.75970705033598
C         5.31100970425994    5.12143308590514   36.46280408560639
H         5.15444699723264    5.71972012032239   35.56332763084726
H         6.17619890399500    4.47486942373117   36.29824732016568
C         2.88813283824454    1.46344180653948   38.75665743662024
C         3.29505976697765    1.30202518075690   40.17402547292587
C         4.11353545342433    0.24570171813654   40.55498614703014
H         4.45011252679699   -0.46014483344739   39.80880906077222
C         4.48510014284796    0.09639260504701   41.87959682158971
H         5.12544368223008   -0.72404689226557   42.16931453051400
C         4.03035847551808    0.99101357984754   42.83381377105299
H         4.31569965980937    0.86948695742484   43.86823117851655
C         3.20250738793643    2.03716555705101   42.46086371533681
H         2.83810232391173    2.72953192325291   43.20539566247840
C         2.83933865454685    2.19745045976572   41.13576898489180
H         2.18731248329476    3.00511091555666   40.83676778841292
C         2.82748222508657    3.61029407199880   34.76529938250408
C         2.50788767168695    5.00870257965642   34.37985006671416
C         1.35958388610431    5.63052951426922   34.85857018328295
H         0.68846798169942    5.08213672886348   35.50524145428944
C         1.09039639269472    6.94175332913526   34.50482799727479
H         0.19916046723898    7.42325471253847   34.87942681000509
C         1.95398320504511    7.63402873845160   33.67224354544924
H         1.73761587309543    8.65539195782597   33.39510428997629
C         3.09577429958524    7.01438742088471   33.19244250322793
H         3.76919576855006    7.55041248640898   32.53934304094719
C         3.37726657291565    5.70766066394139   33.54957677166328
H         4.26423151540999    5.21579317745728   33.17465855790856
C         1.58081838360462    0.94489285644934   31.92264920421023
H         1.60949818253836    0.03539006090564   32.51414041677315
H         2.56099195865463    1.08994598335736   31.47610438159206
H         0.87430409996421    0.79058911392067   31.11462199997388
C        -0.66511272008835    2.13132157272198   33.79260882063637
H        -0.99952255311909    2.98487766724795   34.37690814207540
H        -0.62339663635357    1.27546807416655   34.46437268038208
H        -1.41860879715372    1.92270564872037   33.03944405406649
C         0.91911714341438    3.95299423107388   31.82419510657826
H         1.89490048766501    4.25597172647450   31.45900644541155
H         0.46957169311890    4.81230300544742   32.30932505561087
H         0.30960065761904    3.70251484894198   30.96313181902310
C        -0.74184018756319   -0.03630790740733   37.91653852019251
H        -0.67468971563104   -0.08892861130850   36.83187167922213
H        -1.03806474622858    0.97756777094006   38.17587072215029
H        -1.53626350491704   -0.70700358330673   38.22936104129867
C         1.42979925837762   -2.28807374949708   38.21425179222992
H         2.38023819211354   -2.59160220829798   38.64571437363051
H         1.49369591390529   -2.38185392891068   37.13430105795198
H         0.67990973295288   -2.99205894750381   38.55795761661211
C         0.68945125503421   -0.49047337868988   40.62057333631327
H         0.47264693336773    0.50696424869751   40.98799427585951
H         1.56848656283674   -0.84984738765619   41.14468494952028
H        -0.14168953364312   -1.13063985957657   40.89499346697858
C         4.50430930470223   -0.70264183321230   36.58509818273637
H         3.54163818106888   -1.09676484488463   36.93424360796121
H         5.17130408319064   -0.53913747780407   37.44070058893155
C         5.12473211776594   -1.61458244136975   35.52509636558108
H         4.81552104735098   -2.64837511021874   35.65320958998424
H         6.21456624066946   -1.56360409508210   35.55838912223722
C         4.59895874902807   -0.99596595564415   34.23284112433997
H         5.19796765084177   -1.24825182249076   33.36142527864335
H         3.56076505646976   -1.29109309423547   34.07272851171329
C         4.65632388954002    0.48740302205712   34.57466955841703
H         5.68161066732355    0.87721515607004   34.48411407270228
H         3.96476682660135    1.10150060724555   33.98355342028162
Cl        1.47108059346869   -0.30404335984138   35.21537243550615
Cl        0.44458083813414    2.91980342599470   36.81638075042707

