53
CSD_code = YENCOK | q = 0 | S = 0 | Stoichiometry = C12H28B10N2Ru | MND = 8
Ru        3.47958735096762    7.89766589363005    4.25992311486265
C         4.56102369840275    8.19936908984454    7.13877115746355
C         4.91954128273667    7.45751230321309    5.68988799856308
C         3.28076564968423    9.07009506231430    7.18636511063853
C         2.27182980046896    8.56215490045765    8.23219356547190
H         1.33882194134478    9.11588859634991    8.13410170148380
H         2.65625774520026    8.72015353757357    9.23649878065841
H         2.06092758389432    7.50431006468171    8.11407703871167
C         3.58365206122238   10.53075744249310    7.56756662514528
H         2.68213931260791   11.13044523884413    7.44704813419530
H         4.36801386045020   10.95784826218349    6.95134260262221
H         3.89734757374189   10.59402626395784    8.60627545937485
C         2.61060686315564    9.06010894656058    5.81975011213837
C         2.88560736855006    9.94850325453950    4.73635931426911
H         3.45511101055472   10.86698130534450    4.78870461968024
C         1.99073741755965    9.62212649754221    3.66307792828952
H         1.87096611695149   10.19669747409402    2.75398899675799
C         1.22297229880011    8.52628594045406    4.04683665104208
H         0.39846625314989    8.09984305218658    3.49108525255231
C         1.61796620254290    8.13915049112817    5.37164099913727
H         1.06351356079860    7.44351008037373    5.98819193842108
C         3.99876379469877    5.82551681076984    2.12592683365531
H         3.27535436394537    6.30590004662059    1.45734636107217
H         4.20118365586872    4.81209317533202    1.75275739638189
C         5.29690485643041    6.63845552971900    2.14006989477055
H         6.00066304728705    6.16448597758691    2.83176634425367
H         5.73963248073951    6.65875687727217    1.13557494750275
B         5.88955752281012    8.76748685820673    6.23038404555136
H         5.79072086380406    9.78463592825494    5.64291254491423
B         5.99943946174710    8.63400340100200    7.98839699237404
H         5.99610971960359    9.60703060474580    8.64856947999676
B         5.06675369545155    7.22778684828304    8.47302833245538
H         4.43114469366241    7.24667960061101    9.46223746375152
B         4.39113925056408    6.50296351567198    7.01203615553914
H         3.31001563753940    6.03866549768902    6.93219269660978
B         6.64467437248436    7.35587647259416    5.53196399585008
H         7.11323394606474    7.42653890568791    4.44556954415866
B         7.35064196401698    8.09789008726163    6.97701853946764
H         8.37144266640873    8.68646169821323    6.93557085918427
B         6.83389210217991    7.11882439099452    8.37519684301433
H         7.49454038363578    7.01640236348293    9.34630719417533
B         5.81860196687900    5.78232991102749    7.77462872177573
H         5.75291696458333    4.72861151721684    8.29962711584677
B         5.72162077512627    5.95578819237441    6.01496849471871
H         5.55718334785642    5.05514109325764    5.25805924802967
B         7.24510961876517    6.32224176304326    6.84635503839625
H         8.19713099634983    5.64150508504392    6.70012273733166
N         3.44610058279436    5.82007379613929    3.48102748927817
N         5.00807610432399    7.98339976967250    2.64561299538038
H         4.01881478946649    5.22833852737643    4.08830453094930
H         4.62935380356178    8.56963808879572    1.90137518729439
H         2.49933484435858    5.44464330887079    3.48234699767471
H         5.86389277420601    8.41900065941314    2.98825787716518

