83
CSD_code = YENDAX | q = 0 | S = 0 | Stoichiometry = C24H44B10N4Ru | MND = 8
Ru        2.72729602965844    1.80555054101982   10.05095675934862
N         2.14810119533765    3.31413035657057   12.72432873465616
N         1.38268799904079    1.31108606384788   12.66864759335758
N        -0.36461286585639    1.80408963317109    9.89155106184972
N         0.46289100751418    0.16988971350131    8.77448857032561
C         4.04446618775704    3.67090877129117    7.77903309499317
C         2.64026756992347    3.50982350364877    8.70726551927086
C         5.22180481254294    2.72977385064778    8.11944510951969
C         6.47300190294600    3.48595356216970    8.60588770456976
H         7.21628567987887    2.76651307580004    8.94930218269328
H         6.25294999747945    4.16601196178679    9.42221818801674
H         6.90913823538930    4.06337081711566    7.79459469302946
C         5.68040537170123    1.92234262804884    6.89085391884887
H         6.41209730569647    1.17468577032459    7.19704717383333
H         6.15368953013646    2.57934230726294    6.16517707799177
H         4.85237941421754    1.41978402404626    6.39914059062591
C         4.79352999789631    1.76573628673183    9.21338394092449
C         4.86244276987808    1.99322385525900   10.61772309143363
H         5.35856017702632    2.81716518964329   11.11214817228976
C         4.47693743211894    0.78586340017206   11.26387997963206
H         4.54196828261951    0.59833514199379   12.32955427022921
C         4.15715399496794   -0.16641495352915   10.28469155180195
H         3.93912586563883   -1.21138479138495   10.46148076025380
C         4.35219894403572    0.43505566479658    9.01317339917874
H         4.39815655138527   -0.10644127790991    8.07883323020116
C         1.97307350809454    2.26340326746750   11.88140557979144
C         1.66299977136048    3.04272267350180   13.98874447795044
C         1.17662323462868    1.77734083696683   13.95356250070435
C         2.74150564597776    4.57289998724524   12.38405250934768
H         3.05923709739581    4.52519621373575   11.34774468881429
H         3.60252396388216    4.77435846911611   13.02402694848413
H         2.02107374928789    5.38490059688281   12.49972617461256
C         1.72488278019416    4.03660343524608   15.09121815955572
H         1.26873189825824    3.62929550271102   15.98877978856327
H         1.19868512475050    4.95057879153661   14.81686325205159
H         2.75811279454434    4.29854868185883   15.31857564649302
C         0.53630180823152    0.95214152851283   15.01157992954570
H         0.36893085566134    1.55355791044085   15.90035624523202
H         1.16797103331326    0.10632898598410   15.28612412033131
H        -0.42216572086755    0.56162347515144   14.67084520215576
C         1.03692987478200   -0.02832735601058   12.28198704761638
H         1.52821123741351   -0.25598598044583   11.33427029979314
H        -0.04449691561493   -0.13690643795740   12.15899606729128
H         1.37775280513063   -0.73547541049657   13.03977876024347
C         0.83161931752797    1.25915790896220    9.51115021180890
C        -1.43156507061582    1.07357812839124    9.40729282575514
C        -0.91075085309009    0.04125231071026    8.70080293906134
C        -0.56770063378528    3.03347649233600   10.60583473548612
H         0.37544676695317    3.57358449581146   10.63223655345168
H        -0.91640488665179    2.83977244204176   11.62409551653941
H        -1.30767236028863    3.64295094829030   10.08720525393442
C        -2.84486736559919    1.45280942504758    9.66867535171360
H        -3.51150476369105    0.67184311124530    9.31450821090574
H        -3.09790895691419    2.37879701828639    9.15232664926879
H        -3.01639960756428    1.60108786746067   10.73417141899488
C        -1.56817939270441   -1.06075951428908    7.95135001490090
H        -2.64383802111031   -1.01760281223800    8.09445214321884
H        -1.21087887537497   -2.03245745768583    8.29210794290365
H        -1.36169779348300   -0.97912450163835    6.88419386828006
C         1.34057512658892   -0.74291379466277    8.10549861707926
H         2.35532800730406   -0.36651200964337    8.19935516237500
H         1.08138699337482   -0.81449829043156    7.04781530923094
H         1.28309048604329   -1.73998417847093    8.55150355913960
B         3.64909456867588    4.89309368264317    8.87781831420286
H         4.30274374450024    5.00816357872255    9.85061294458735
B         4.30127472274541    5.30898552473203    7.28683979622913
H         5.40810392632916    5.70141451531268    7.20725431584811
B         3.68015065598642    4.13768548506865    6.14823086948125
H         4.35676035251355    3.72859087189700    5.27684323988912
B         2.65726283535063    3.01592761794350    7.05203296242528
H         2.61866218941099    1.85698930557587    6.83251829947489
B         1.91160657217365    5.07643547863769    8.82410040256549
H         1.32313921905258    5.34060970075164    9.81168587487341
B         2.94357327125277    6.22937235131513    7.95084970884030
H         3.06849355575274    7.34375803303633    8.31692760987168
B         2.94758891043074    5.74893991852496    6.23538079744305
H         3.08565815330273    6.52866935009424    5.36112950798834
B         1.92437233707858    4.30034420140042    6.06972798580282
H         1.31995392817245    4.03742508667946    5.09121611931653
B         1.29314604173200    3.91383035343552    7.67741788709744
H         0.27512111974426    3.35212074608845    7.86048074457393
B         1.45983910314046    5.60979829216030    7.18708714666355
H         0.51156874037467    6.28808804898105    7.00762542133066

