38
CSD_code = YENFAZ | q = 0 | S = 0 | Stoichiometry = C19H10AuClF4NPS | MND = 2
Au        2.31626381037645    6.95990811944792    5.81589574780380
Cl        2.53943587132439    8.12397979526123    3.90065223404785
P         2.05585473157314    5.80429916851969    7.71646206980548
C         1.06048236811671    4.31699356041259    7.46407222305671
S         0.42314112082269    3.95635048195708    5.86430429523099
N         0.73432718728674    3.49339872777150    8.39440918321747
C        -0.34000746455729    2.56266953142805    6.55116554147835
C        -0.04840106172301    2.48840454865645    7.93678090479807
C        -0.56339938492145    1.43332077944666    8.69760641276467
C        -1.35494887739295    0.48001806920471    8.08211131378582
C        -1.64059615299614    0.56170762920090    6.71041047404846
C        -1.13516864854978    1.59906917898345    5.94172182768851
F        -0.29106836322127    1.34960714794605    9.99964378102793
F        -1.85898520787715   -0.53402585708599    8.78725558877896
F        -2.40690868568492   -0.37488059827562    6.15184293498887
F        -1.41121658663853    1.66557600345692    4.63878362168115
C         3.55476825541219    5.20252643638728    8.54062132632655
C         4.65315798364320    6.05538501593109    8.44746437886915
C         5.84419742095121    5.71525434913462    9.06013545648050
C         5.94428458148061    4.52188739396328    9.75819226680269
C         4.85385026699366    3.67155601497370    9.84480256365011
C         3.65468753745059    4.00457083796860    9.23962204393145
C         1.12425401309590    6.61642585311992    9.04566529237273
C         0.61815046017539    7.88909395165675    8.80483873272701
C        -0.08750144327166    8.54364646841329    9.79921224069916
C        -0.28489500058621    7.92948118941512   11.02487157806084
C         0.22180344514204    6.65988444706833   11.26174782783846
C         0.92962337873654    5.99707151276720   10.27725964290896
H         4.56288790455730    6.97825070894755    7.88745519506131
H         6.69439514397621    6.37629867530458    8.98833516123134
H         6.87618050941460    4.25177358832819   10.23140648075655
H         4.93598469588053    2.74063026350461   10.38549842299153
H         2.80707119620242    3.33870678259896    9.30654967984293
H         0.78125763886125    8.35650319508444    7.84161286438703
H        -0.48223923356933    9.53139042527303    9.61545180708234
H        -0.83592041210562    8.44076329369734   11.79978619278890
H         0.06494438346723    6.18551746445693   12.21878564185318
H         1.32295261816215    5.00688584568020   10.45116704913993

