59
CSD_code = YENJUX | q = 0 | S = 0 | Stoichiometry = C10H30B16RuS2 | MND = 11
Ru        2.21017451973829   -6.84113453535275   -2.80968662682755
S         1.11174717412826   -4.66034945951770   -2.85611956306754
S         7.22717417210841   -6.26986849947568   -2.69444976578950
C         0.38056000685528   -7.75998807150576   -3.72383004779864
H        -0.65201721629423   -7.42517479268076   -3.75120715374133
C         0.79967025602856   -8.61687317023650   -2.69382825852529
H         0.09313311280948   -8.93381452270340   -1.93600304654998
C         2.11996777759646   -9.10471808659636   -2.66493558468630
C         2.56222632929649  -10.09635885054433   -1.63087286775106
H         1.97173267679441  -10.00039483746089   -0.72304837525137
H         3.61080253330967   -9.95044049125676   -1.38062983120852
H         2.44031204597520  -11.11163359155723   -2.01383726407250
C         2.99762590244075   -8.71741912543457   -3.70893018648493
H         3.98541364194713   -9.16381891853847   -3.74807113422106
C         2.55080229283255   -7.91972060656709   -4.79207571344447
H         3.21681782761809   -7.74071746241731   -5.62616315158217
C         1.24206247465070   -7.41266094599471   -4.80044964455991
C         0.68363035254233   -6.64672485397166   -5.97703642331385
H        -0.25625482598212   -6.17902486772945   -5.66135295500148
C         1.61546919353162   -5.53817392665982   -6.46361202103636
H         1.86919415614040   -4.87446962342397   -5.64034817224424
H         1.12075906173762   -4.95735218024438   -7.23825919489376
H         2.53160648666353   -5.94741564188812   -6.88096891828162
C         0.37523186289514   -7.63449064791918   -7.10877692011216
H         1.28842223614694   -8.11525388499517   -7.45379783958761
H        -0.07782360230980   -7.11284469267220   -7.94834959414866
H        -0.31315581319128   -8.40681692451121   -6.77023685630410
B         2.40129299769430   -6.49442973294528   -0.57945075906525
B         6.08139549459611   -3.68126111862804   -3.74368226552877
B         4.45967501771544   -3.87745649908806   -3.06870574593752
B         0.98319878499154   -5.64966115787791   -1.24135192545633
B         5.00028664680068   -5.03247135855933   -4.32644690072471
B         1.92123074002791   -4.88774543797989    0.08417977789120
B         6.79150520634281   -5.19541028720112   -4.28164979110364
B         3.62879543820264   -5.34507340354969   -0.03882716091432
B         5.87893049131101   -3.59246362659175   -1.95831528795636
B         3.95506012543774   -6.45655307553345   -1.42386422212301
B         4.44016234161770   -4.62677277131307   -1.45804494377727
B         4.15598921026017   -5.61392819613420   -2.87664104762385
B         1.46113844743305   -3.76795965641989   -1.20873454292211
B         5.64696598362476   -6.45969213696566   -3.64327323320097
B         3.18812169331123   -3.71752586976761   -0.46311110026336
B         7.29075691546414   -4.40150129711147   -2.71738837320701
H         2.16179877178739   -7.46369700814664    0.05550551910896
H         6.31787468764697   -2.68889838616602   -4.33166891995632
H         3.67356863254255   -3.05248470191989   -3.37064351778228
H        -0.11651738722323   -6.03120065440653   -1.03583205872987
H         4.46986742785901   -5.04641721722528   -5.37777608283051
H         1.41819798810861   -4.83560116995001    1.14808505248349
H         7.49811250697773   -5.36788071535980   -5.20421042713802
H         4.26655933773617   -5.50381377162998    0.94060383048658
H         6.04752867822677   -2.56150456123787   -1.41210936233625
H         4.67141356930878   -7.37309600643236   -1.19292745404791
H         0.65318462324311   -2.93008346937542   -1.03056304472954
H         5.55938462439719   -7.54615416845382   -4.08415710009249
H         3.49706054900882   -2.83271913726925    0.25123299928946
H         8.38030865030929   -4.00284611984759   -2.51663239658773
H         5.69843972473722   -4.50429828468877   -1.06886695742816
H         2.62312744451287   -3.16514579040854   -1.46125544730917

