51
CSD_code = YENMUA | q = 0 | S = 0 | Stoichiometry = C22H20BrN7Ru | MND = 6
Ru      -19.23278556574566   -8.32415561116959    5.95314824170225
Br      -17.48012561994166  -10.05984447327884    6.45293176377856
N       -20.63948675519698   -6.93327353755429    5.50805534500513
N       -25.16561928427738   -6.52716529629735    5.96086885160765
N       -22.79613140881328   -5.95300434759441    5.93762936020040
N       -20.71117832600372   -9.62543825670594    6.46715134926276
N       -19.34262149868691   -8.95028488823458    4.03141155128022
N       -17.82274641696997   -6.98210754825841    5.42731204247980
N       -19.17329135423887   -7.64169033261207    7.85336777044995
C       -21.73228380309794   -6.56038230691609    5.72664412596746
C       -24.03717463173261   -6.29238091894137    5.92473256134117
C       -20.73914224571688  -10.87172511228764    5.97585443282009
H       -19.88176425274778  -11.18944014803724    5.39417537793422
C       -21.78104400823614  -11.75092072625871    6.19868556744478
H       -21.73844498217182  -12.74206947403016    5.77592766355247
C       -22.86416709819993  -11.34102403163600    6.96124169586032
H       -23.70004170208238  -11.99773776894238    7.14302733255742
C       -22.83395385021024  -10.05933249480719    7.48927186861232
H       -23.64413428684126   -9.68301675414932    8.09292793547498
C       -21.74721212203443   -9.24731891247403    7.22829290876577
H       -21.71497611640016   -8.24754491446051    7.64451369958519
C       -20.52512156296571   -9.09958924277838    3.41886139159034
H       -21.41137166856266   -8.89165026386033    4.00667061197685
C       -20.65069196720394   -9.48057295568964    2.09716430520414
H       -21.63355367418575   -9.58008636988672    1.66443809708203
C       -19.50879793051115   -9.72864959622166    1.34992183574431
H       -19.57409927952936  -10.03126137294055    0.31674450773065
C       -18.28181087094204   -9.57509670270933    1.97731139592296
H       -17.35877622506094   -9.75709864248263    1.45033192403676
C       -18.24312527414045   -9.18722998907347    3.30259330353240
H       -17.28842079223219   -9.08416529004081    3.80485624292040
C       -16.71322130336805   -6.79865177504015    6.15601435625267
H       -16.57842466036827   -7.44129405542520    7.01811727966740
C       -15.74717552802047   -5.86273882155889    5.84063598909982
H       -14.87292569491348   -5.77086593266594    6.46518662452896
C       -15.91746091807813   -5.06138054671853    4.72200644851343
H       -15.18111885804579   -4.32268751880145    4.44717428414006
C       -17.06817299041532   -5.24131562201068    3.96844073130985
H       -17.25816086752490   -4.64371868657676    3.09084724948993
C       -17.98445601310191   -6.20156651319394    4.35045656901819
H       -18.89661892584203   -6.34067387436705    3.78259211798963
C       -19.20497645914967   -6.32682211251329    8.11103191203768
H       -19.23568314647817   -5.66338510991195    7.25446181061924
C       -19.22128832048935   -5.80748424135636    9.39069634315429
H       -19.25121122706259   -4.73847886025209    9.53022747874422
C       -19.20101761269769   -6.67176618509909   10.47545133769229
H       -19.21146333708726   -6.29669806241975   11.48663136480507
C       -19.16736276605800   -8.03328494097162   10.21536524084038
H       -19.14716632498447   -8.75467359024330   11.01657161744552
C       -19.15646164178476   -8.47157132489379    8.90541148476491
H       -19.11363882988151   -9.53308394562166    8.69291469844175

