55
CSD_code = YENMOU | q = 0 | S = 0 | Stoichiometry = C24H20N10Ru | MND = 6
Ru        6.64468026176851   -3.77363379249908    3.21941696012787
N         8.52614733400410   -3.40185159392557    2.58914893529223
N        12.09961840030611   -0.66246169657223    3.40659610401122
N        10.39773994969684   -1.93486904470070    2.21077240916023
N         4.77334155451506   -4.16801893160171    3.85744470374352
N         2.48283568828335   -3.63273927427468    4.36781556438728
N         1.08886492514849   -2.47434070581828    5.99807810172486
N         6.65524792247629   -2.04035588130136    4.26930683193170
N         5.90153327882011   -2.80232140365450    1.62149640273898
N         6.64778645417763   -5.48022821947228    2.18050344695402
N         7.37781484823582   -4.74488483231266    4.81474448451365
C         9.43050657362505   -2.65520021903999    2.50941160972890
C        11.28438339542091   -1.28620257138599    2.88109577230457
C         3.69380163896765   -3.82735552135762    4.17311966797846
C         1.78684695130164   -3.01689157999646    5.25757166923033
C         5.62720008274344   -1.18195889137927    4.22116801787667
H         4.77518334199131   -1.47220692018467    3.61768464212170
C         5.60636444200888    0.01733788328006    4.90709355195658
H         4.74144452708806    0.65710601530897    4.83361452256770
C         6.70113227162869    0.37606762013369    5.67934570616926
H         6.71979854439617    1.30851301411076    6.22059742892025
C         7.77055486130717   -0.50531417349746    5.73310389734935
H         8.65197674667482   -0.27964559765406    6.31174525801943
C         7.70390852929056   -1.69180687466747    5.02810266294867
H         8.53556467603625   -2.38594413931968    5.06361839541731
C         6.40300279547538   -1.62985009747065    1.20859781687379
H         7.25265024492040   -1.24189358654633    1.75777647136305
C         5.90305319846420   -0.93054808363829    0.12696151500650
H         6.35554149912491    0.00641144413056   -0.15648311434272
C         4.82457761849219   -1.44689897210900   -0.57613561960103
H         4.40801260991979   -0.92312817966618   -1.42177808531470
C         4.29953626298358   -2.65941238133354   -0.15341127215701
H         3.45891726994544   -3.10769254555936   -0.65884382440590
C         4.86259330742504   -3.29852937400255    0.93421447628603
H         4.45238925829476   -4.23843415835021    1.28582929672919
C         7.16521884198696   -5.54577768445521    0.94590091144687
H         7.59714121911609   -4.63247349303802    0.55286640827857
C         7.18934780221111   -6.70640768325804    0.19688557656650
H         7.62456576399741   -6.69619215776081   -0.78990400239593
C         6.65320744912732   -7.87017779125199    0.72901662140187
H         6.65540217568561   -8.79193461257964    0.16918245995329
C         6.11396533961340   -7.80752233819106    2.00586517142074
H         5.68041114527216   -8.67987329139774    2.46880499355026
C         6.13262353221405   -6.60766241305661    2.69036741623469
H         5.69737365083605   -6.53573895997883    3.68056365706597
C         8.42377813076206   -5.57568432211956    4.70291578125490
H         8.85241149750209   -5.68317685203402    3.71293260000288
C         8.97059168944712   -6.25216856094190    5.77621937815800
H         9.81770644208645   -6.90176738976127    5.62255163460807
C         8.42119205471542   -6.08114447584629    7.03868869623530
H         8.82483104159038   -6.59471163325665    7.89675105456620
C         7.33601393076846   -5.22551204972851    7.16023598010583
H         6.86616470922818   -5.05501843732867    8.11586853991868
C         6.85253819122912   -4.58252765464209    6.03699888270268
H         5.99686412764792   -3.92174493304356    6.11436383130896

