51
CSD_code = YENMEK | q = 0 | S = 0 | Stoichiometry = C22H20ClN7Ru | MND = 6
Ru       -5.42241910778813   17.00725644278078   14.65512235363831
Cl       -7.05574567409296   15.34061205601324   14.23366025278393
N        -4.04391519580035   18.43193835557134   15.04097453289471
N         0.42958520339016   19.33554728090145   15.51471704090414
N        -1.89253897245730   19.48264107264274   14.78938332484584
N        -6.86656407535267   18.30343138531689   15.13332782668611
N        -5.52415476183740   17.59692174070712   12.74426593792293
N        -5.32542512338621   16.40775508431143   16.56672100773782
N        -3.97797791674086   15.69620188030390   14.16884375993586
C        -2.94964915756098   18.85080313588205   14.95210414060738
C        -0.68177333141877   19.36806162927015   15.20776935863553
C        -6.75082717571220   19.11852800865644   16.19011433927120
H        -5.82043410761574   19.06205811668555   16.74310829143866
C        -7.73394598882473   20.01338887705862   16.56505659346781
H        -7.58045380600559   20.64608794832109   17.42507562880247
C        -8.90606273556048   20.08328083958969   15.82586976747960
H        -9.69440742282226   20.76871359107019   16.09487814479054
C        -9.02929481201100   19.24301076253851   14.72962565610343
H        -9.91832593515126   19.25190815818893   14.11898342454118
C        -7.99605839122291   18.37955672159464   14.41827203212368
H        -8.08740747847663   17.69995266760295   13.57922617085911
C        -5.51715195756506   18.89498783900144   12.41242230856008
H        -5.43509441725729   19.60246138453320   13.22969495722431
C        -5.58265861881795   19.34105987625230   11.10675844417380
H        -5.56715459893479   20.40014326595235   10.90327074285709
C        -5.66568743914261   18.41544710547167   10.07659492433953
H        -5.71940634084126   18.73163747525610    9.04665846171694
C        -5.67738905336473   17.07087386807529   10.41546687532613
H        -5.74471785261771   16.30636168257431    9.65765108147071
C        -5.60239582645259   16.70729276163316   11.74664355522822
H        -5.63394809097924   15.66200642887883   12.02965508048305
C        -4.15346856506492   16.25890294070721   17.19881765592881
H        -3.26187362101778   16.51437261376941   16.63786267352704
C        -4.04836065642836   15.82513533394084   18.50606945259592
H        -3.07429860177530   15.72980728323953   18.95922169281208
C        -5.20156674416849   15.51897339456328   19.21393317785430
H        -5.15324630534800   15.17411242646259   20.23487384548763
C        -6.41730169822785   15.67054967749716   18.56429902732674
H        -7.34655142289099   15.44427424825815   19.06293178608573
C        -6.43576531194343   16.11609823277917   17.25622290634601
H        -7.37657794291712   16.21632904863785   16.72812005796377
C        -2.94427788567541   16.03546896492545   13.38660741818775
H        -2.92194991778798   17.05564383505626   13.02143049984596
C        -1.92752750072675   15.16143951123839   13.05382681858216
H        -1.11638905296569   15.50093529668633   12.42954643788694
C        -1.96770504881872   13.86056454624095   13.53330862724080
H        -1.18904308405253   13.15419675409991   13.29216056274825
C        -3.04401301633219   13.49864230389185   14.32916788081507
H        -3.13469440530601   12.49825970764751   14.72201542358901
C        -4.01477625278071   14.43709959144689   14.62317434899816
H        -4.87291280334678   14.16246684627639   15.22479368933062

