27
CSD_code = YENRIT | q = 0 | S = 0 | Stoichiometry = C12H8Cl3N2ORe | MND = 6
Re        0.21842641289321    2.96465114662759    1.67660689644228
Cl       -1.81392675478537    3.29542713650562    2.76346745707968
Cl       -0.95403059703047    2.25959765800701   -0.10828314753344
Cl        2.01955350567877    1.73437900573212    0.86509339231190
O         0.65590578647031    4.51662714697578    1.28097663333265
N        -0.12587534040269    0.95299364919736    2.64369745096166
C        -0.78403560062939   -0.08033842425999    2.15647397577780
H        -1.20866108364335    0.04431382234141    1.16833235336757
C        -0.93371208628307   -1.27477906178894    2.86481115439855
H        -1.48265357663614   -2.08634159992432    2.41528006311961
C        -0.38221318159776   -1.39759891495428    4.11873563422764
H        -0.48383894790267   -2.30910130003370    4.68892131110323
C         0.32493386749698   -0.31264126914966    4.66037523362515
C         0.42327180893716    0.85069717806635    3.86949153887146
C         0.94022811061352   -0.31975020878663    5.94509176096476
H         0.85770123294182   -1.21485199864999    6.54307884369161
C         1.61115946448543    0.76363817241317    6.40722126197970
H         2.07506968920242    0.75028496939130    7.38192857750243
C         1.12780943738563    1.99032801308280    4.35448295725496
C         1.72884163302276    1.95282421354679    5.62963399118283
C         2.41216549435071    3.10100949987233    6.05719933349796
H         2.88706916533371    3.11635830545895    7.02609979188120
C         2.45953046695536    4.19241357522163    5.21748843876514
H         2.97483269571434    5.09372745840890    5.50753849245609
C         1.83586405699615    4.14167401541364    3.97437625162688
H         1.85966047934652    4.98655067244499    3.29999418001642
N         1.18262386108649    3.07030713883955    3.54518617209421

