68
CSD_code = YEPDIJ | q = 0 | S = 0 | Stoichiometry = C25H34Br2N4O2Pd | MND = 4
Pd        3.68863349733768    7.66176357280857   22.38967510100940
Br        2.41227579757595    6.50556217293300   24.11029286004355
Br        5.06644648246136    8.85777106693281   20.77882163016012
N         6.13216095435129    6.99215701087350   23.87394359293458
C         6.27383748591405    5.77897835022348   23.08392402569676
H         5.44450745597053    5.82032062627808   22.34180384945708
C         7.59059907449338    5.77990016707374   22.31325792390568
H         7.66809932061360    6.68649773454129   21.71630295216593
H         7.62296834549092    4.92385354635487   21.64437913390131
H         8.44413223375105    5.72846843065114   22.98294758582063
C         6.08223002539992    4.54604786134777   23.96354817538857
H         6.85412584278488    4.48719129832359   24.72600643915846
H         6.12480483254002    3.64564469562590   23.35616137219979
H         5.11194366521936    4.59036785205813   24.45535684181869
C         5.11680227178825    7.84779829792836   23.67774325664633
N         5.23914075539358    8.87702486876995   24.52995964655981
C         4.28293147631026    9.97566303411121   24.55054351630388
H         3.53165793418121    9.73156621317263   23.76073769710079
C         4.96485389718637   11.28603132795834   24.16749719294101
H         5.71608009481159   11.56958904104553   24.89943229790773
H         4.22439950370613   12.07893527021972   24.10434819251113
H         5.44503006581995   11.18233992020525   23.19608889251155
C         3.56039326577551   10.03318716745736   25.89331647984223
H         3.09122984444920    9.07342655893579   26.10194479161922
H         2.78666155613426   10.79553594566078   25.86037741914101
H         4.24643390636606   10.26887978700537   26.70211258680882
C         6.36064501432165    8.68728831343019   25.31057801769073
C         6.93788621104715    9.42999088991563   26.32967196953860
H         6.51655242981246   10.36371819004895   26.66397992334126
C         8.08562278974238    8.93325318527809   26.91679922724865
H         8.55507835370191    9.49133881014119   27.71228257345699
C         8.64760852639227    7.72860766983441   26.50686469646667
H         9.54265267686815    7.37097693318399   26.99226591443332
C         8.08441215382209    6.97917991709257   25.49194851446218
H         8.53286440907582    6.04658437110774   25.19126765665439
C         6.93506976243752    7.46870076953901   24.89014786775898
N         2.21072613402259    7.46350968237088   20.96972672853439
C         1.51276334124713    8.30236395503641   20.24934053083464
H         1.42197098879606    9.35052549035344   20.46869073764120
N         0.90733135885759    7.70787520905679   19.19430396392482
C         0.14623846576700    8.34437230295692   18.13936722101618
H        -0.54740078631633    7.58499675675291   17.75811005593071
C         1.09408817616819    8.77436895559526   17.01834763007674
H         1.81273135016346    9.50051847672970   17.39208765610737
H         0.53275322386648    9.22345765396333   16.20371090321709
H         1.64292471441052    7.91684495774038   16.63555340217767
C        -0.66004955660030    9.52396370809503   18.67341663442150
H        -1.22646071085217    9.23373630827806   19.55570949801340
H        -1.35740805191274    9.86073255783410   17.91110576755858
H        -0.00998245678672   10.35738479023552   18.92749281276939
C         1.27288507374737    6.38244866712493   19.23195342786301
C         0.98758108802880    5.29225887780421   18.41370905877514
H         0.35901947845270    5.40173452740152   17.54569301052840
C         1.54103481755092    4.07462121503411   18.75626602717388
O         1.35722096779406    2.92152314473419   18.06109604721392
C         0.53661661141938    2.94850057979480   16.92169315198816
H        -0.48782461947537    3.24782951629491   17.16884194087955
H         0.52997316275366    1.92876702033708   16.54071393408023
H         0.93565399633921    3.61818943865628   16.15187816121610
C         2.37933523711317    3.93423261971760   19.90696637840230
O         2.84594561913808    2.67592042454938   20.11553854999820
C         3.66365974659174    2.45977849196616   21.24021935555841
H         4.59324879755913    3.03590723765910   21.17253878217581
H         3.89758932453016    1.39664733462921   21.23368473550746
H         3.14531802987051    2.71210420400879   22.17094509272242
C         2.66238239586056    5.01740372711934   20.70796820685610
H         3.28164375065734    4.94540231562914   21.59645929740185
C         2.09351841776948    6.24333898475708   20.35884148473157

