64
CSD_code = YEPGOS | q = 0 | S = 0 | Stoichiometry = C27H29Br2N5Ni | MND = 5
Ni        6.85982385150201    1.93954892815300    7.60933785573139
Br        8.14376501228573    3.49275105788240    6.29457716562895
Br        5.53694922134352    0.41016828779907    6.31680298054469
N         4.52690083993846    3.79182750113732    7.23404617243107
C         4.45350667989129    3.85243871006368    5.79324131279319
H         3.41320278744106    3.70002873147931    5.49255012157845
H         5.05824335820836    3.03321853652121    5.39970818477002
C         4.98638354234116    5.18087722506871    5.25701976678451
H         4.40488006321553    6.00696920689341    5.67503537872621
H         6.02377747573022    5.29826133327189    5.57348945573785
C         4.92959517455083    5.23368302738130    3.73124160947976
H         5.22862876533299    6.23625533281937    3.41891004899911
H         3.90164503967606    5.07365045783654    3.39516115670025
C         5.85336021868349    4.21395964347071    3.07472594725773
H         6.84927809326263    4.28034423561982    3.50492636336384
H         5.92190550793732    4.40359389487069    2.00642982599250
H         5.48622922119262    3.20073473475256    3.21208952461565
C         5.43840029232950    3.10486328010292    7.92068918160101
N         5.19274618902150    3.32685542403866    9.27112549136625
C         4.10305883234192    4.16834951622213    9.40761972456291
C         3.43559319912279    4.69967092382626   10.49870259365265
H         3.73413091335406    4.49446730102438   11.51316414333580
C         2.34868879275920    5.51731866346864   10.24545012600912
H         1.81115898709314    5.94552026408098   11.07732336564797
C         1.92997427663759    5.79685707875014    8.94824495831108
H         1.07354683161735    6.43533017141484    8.79696052006200
C         2.58797063677130    5.27259608072119    7.85195704648932
H         2.26022913007615    5.48471766796062    6.84739480329582
C         3.68293211416588    4.45954626060148    8.09625905297162
N         6.91691122099554    1.94349988684190    9.52780718767754
C         6.02428467811173    2.68601414474131   10.17607997381026
C         6.04123285620803    2.72297522199221   11.56408260668974
H         5.34074416428370    3.31061035258166   12.12954159512591
C         7.01022614240096    1.96473898056828   12.20928610088085
H         7.04692905256730    1.97224999418485   13.28777855337147
C         7.93501377839125    1.19900014252165   11.51031451733352
H         8.67513273543451    0.62207379336639   12.03483194903140
C         7.85676949434858    1.21577223901366   10.12404216955164
N         9.18461622879630    0.11331437061165    7.10078217992349
C         9.17400872999146    0.05064817157509    5.65825692353329
H        10.19054756542204    0.22862933251044    5.29650541664595
H         8.52646662275040    0.85314637676593    5.29964734614579
C         8.64503473860848   -1.29323401461874    5.15790972353292
H         9.25968626069303   -2.10327524049901    5.55968846493187
H         7.62425749880693   -1.42646181557962    5.51912132022435
C         8.63954529774035   -1.36277012245629    3.63186621880017
H         8.34123911112300   -2.37263237448069    3.34305840970516
H         9.65066564347517   -1.19365434091881    3.25186506691580
C         7.67654111483751   -0.36191559335577    3.00330850425183
H         6.70133918057068   -0.43228165977337    3.47790918318926
H         7.56331863687937   -0.56667469760879    1.94171025470420
H         8.03859142011570    0.65655200409547    3.11146102970784
C         8.30233430788593    0.78394757449821    7.83959365243912
N         8.63384193729616    0.57305485440710    9.17323422009774
C         9.74788192986457   -0.24424901180753    9.24572878867183
C        10.49258053863585   -0.75488958799096   10.29587376037921
H        10.25091791343151   -0.55268745327197   11.32594408851979
C        11.58186998289717   -1.54699659714565    9.97947893547119
H        12.17943989938638   -1.95802842917869   10.77839160270227
C        11.92801794232861   -1.82176785400759    8.66004830037321
H        12.78965692739598   -2.43913276229343    8.45904225220947
C        11.19186243118148   -1.31893093807459    7.60417004195245
H        11.46363596162836   -1.52703238103442    6.58221709965819
C        10.09415300769569   -0.53161604341072    7.91213868340219

