119
CSD_code = YEPKIO | q = 0 | S = 0 | Stoichiometry = C44H67Br2LaN2O3 | MND = 7
La        5.82937810505237    3.20088715067732   14.28427698388013
Br        3.65900826196347    4.88763583175501   13.87636056532373
Br        7.14343083639014    0.76399289918736   14.43276341927358
O         5.38005443264166    2.59635154332766   11.67432573128113
N         7.72653333029914    4.66792636555084   13.75862161510202
O         4.63803685234687    2.46545464411422   16.57813042768383
C         7.87155220419634    5.03828942225857   15.06691882499068
N         7.01839045474318    4.44956899236410   15.89727840610987
C         8.87387286956476    5.97428598765685   15.44100072432669
H         8.96367505773942    6.24815914396708   16.48112977445865
C         9.69121582894382    6.49924973917442   14.48050341214655
H        10.45485459711161    7.21647271405465   14.74669233670075
C         9.54135300983674    6.10022230833490   13.14968682495563
H        10.17187139689795    6.49854742184121   12.37081418108682
O         3.74325558318216    1.37669758587976   13.92554492564028
C         8.55554639482161    5.18238191279558   12.84130573407724
C         8.38290122093433    4.71055948109221   11.44377243947565
C         7.72545876212141    5.52229680071244   10.51704931196510
C         7.59610447673258    5.07671942882645    9.20838003461792
H         7.07766100066090    5.69651849655315    8.49247076170368
C         8.13569699037102    3.86715142722815    8.79818052864091
C         8.79694171228578    3.08425011717387    9.73378069971273
H         9.23201198685832    2.14966290523170    9.41279585192775
C         8.92316144531396    3.47775294217114   11.05873987663359
C         9.70638694547158    2.64541924470007   12.05106718023191
H         9.27128022768179    2.79478675762719   13.04579535664378
C        11.15523003092272    3.14512543246300   12.08568618006729
H        11.73685802121433    2.55266787772937   12.78834459848914
H        11.19837906969160    4.18678500400500   12.39401538252649
H        11.60653035418371    3.05695735206947   11.09891055351473
C         9.68991614362500    1.14588085344413   11.75867461718279
H        10.10663122315095    0.60984415602488   12.60756518683554
H        10.28733043309327    0.90586242692025   10.88187426084415
H         8.67621335698357    0.78556663565783   11.60873002379296
C         8.02673909485929    3.40949585674618    7.36296068239970
H         8.56957769883715    2.46223489018808    7.26530423216301
C         6.56733262411862    3.16037998139440    6.97624435634021
H         6.50319619132219    2.82247607315620    5.94405344053922
H         5.97982019380174    4.07039420244163    7.07573503826972
H         6.13353661073935    2.39543264786102    7.61638156473821
C         7.17621280025348    6.87492596445525   10.91270498682157
H         7.47587536722358    7.08169411455844   11.94453846015232
C         5.64755906213830    6.89219798781991   10.86400275702251
H         5.23899494464402    6.19795586540237   11.59397346212490
H         5.28056444776955    6.61831775895573    9.87719862579918
H         5.27849276044978    7.88664011866368   11.10358384522730
C         7.76209610181434    7.97730667696738   10.02673928625549
H         8.84894656649564    7.92603707871353   10.02492787414348
H         7.46319531214175    8.95360612898108   10.40184450974342
H         7.41257706700119    7.88677621372375    9.00128414628216
C         5.81591851296084    1.41401375452774   11.00773000841886
H         6.71929239160045    1.64475611947946   10.42641254015432
H         6.04399001725090    0.65638927509527   11.75860716968913
C         4.66691608752716    1.01419392998584   10.07403201004793
H         4.00653298366924    0.30117721249324   10.56411480770313
H         5.04385497334005    0.55639503700590    9.16192040364772
C         3.93995274163429    2.34311411500250    9.81152776689987
H         2.89993783845593    2.29061475601952   10.13086164716102
H         3.95593007952073    2.62387345138816    8.76085902321527
C         4.72285873642379    3.35577673997782   10.65980418696275
H         5.47943984514865    3.86529821271585   10.04947691809216
H         4.08228134304274    4.09673410553142   11.13917305748389
C         3.48930507268187    3.05226162965544   17.18233091094320
H         3.30608386051035    4.01893416653457   16.71156829285622
H         2.61896922493355    2.39956524750299   17.01576358489566
C         3.80511858752060    3.14813908784071   18.68020201355313
H         4.20958077738087    4.12830645868781   18.92556604285675
H         2.91440730581987    2.97793126168832   19.28142866299207
C         4.87803644547809    2.06792158631657   18.89416893799046
H         4.57069001750415    1.31081759151801   19.61259450730652
H         5.80384229772762    2.52361373614669   19.24042673798917
C         5.06273270924733    1.46274280204760   17.49742809541438
H         6.09465262491933    1.19901552840289   17.26638373744704
H         4.43024623068799    0.57052123884677   17.38053634044800
C         3.61336748852705    0.05571680965759   14.43618432923432
H         3.05362178231777    0.07690624935316   15.38272127258865
H         4.60914075403764   -0.35173868480561   14.60733239270113
C         2.81556441334744   -0.69695582797344   13.37353689081382
H         2.30784334969833   -1.56648181714204   13.78298472909639
H         3.48334650122760   -1.02679067267588   12.57792545125173
C         1.84575795805729    0.38006345085135   12.86948498448167
H         0.85010089474179    0.24308423177900   13.28800527672275
H         1.75848845092421    0.36819140406393   11.78467395449290
C         2.46503307360610    1.69680811037263   13.37505710547465
H         2.61482419582979    2.43072892597069   12.58414379273252
H         1.83626698407222    2.14994697149758   14.15250727417415
C         7.08752318788335    4.73025461293259   17.27772117771926
C         7.90242147091142    3.94050609365256   18.10725948758324
C         7.94830258649259    4.22531343633089   19.46419455115317
H         8.58245579203731    3.63916349853121   20.11185234039040
C         7.19936158634992    5.25615209034651   20.00138161070731
H         7.25113738644121    5.46735917846416   21.05971006535169
C         6.38759298867885    6.01844910307078   19.18210243525084
H         5.81034230877860    6.82409710483889   19.61011860258744
C         6.31514655005991    5.77168862546379   17.81910259784553
C         5.45072362897513    6.62842919316802   16.92177411118922
H         5.27884669016821    6.07346832459495   15.99268239016126
C         6.17817370070795    7.92821878471967   16.56300461360084
H         5.54090237917399    8.54671634476521   15.93456261378950
H         7.09765929663856    7.72121560681296   16.02047803090673
H         6.42631872496446    8.48537441408310   17.46491590958452
C         4.08841834081792    6.96198098258723   17.53307743213669
H         3.43842283978764    7.37033828313948   16.76254617188482
H         4.18311663335845    7.70266874013645   18.32399362535695
H         3.61050427687637    6.07638737787461   17.94523476152995
C         8.72940661374288    2.81695319031723   17.52218474088035
H         8.26326915586294    2.51727825724871   16.57558516841342
C        10.15101085543954    3.29756139571894   17.21214202368510
H        10.74202652653836    2.47286920154585   16.81915419490174
H        10.62960085017947    3.67061413640016   18.11616378112046
H        10.14059495982888    4.09481571659794   16.47281009219871
C         8.80229600646340    1.58626984943306   18.42968049913520
H         9.17022008090297    0.73718682004169   17.85794931253296
H         7.82584727947061    1.32855179486023   18.83361222075936
H         9.48466488004427    1.75392940034758   19.26004562434131
C         8.67225416811922    4.42412642942965    6.41728588952029
H         8.66739702289843    4.04497915827437    5.39751967638507
H         9.70225177047685    4.61258937941138    6.71196252874419
H         8.13342344884260    5.36810471680304    6.43325286073632

