63
CSD_code = YEPMOY | q = 0 | S = 0 | Stoichiometry = C31H23F2IrN2O2Se2 | MND = 6
Ir        4.24471193237077    6.95347029811651    3.91066585757946
Se        1.79383552783686   12.29365406071583    3.07138368066560
Se        7.84135142325958    9.12104414206071    5.76794388782822
C         5.13870500231612    5.06110465146260    1.83755202233488
H         5.52085417936508    4.52577610702941    2.69592049288121
C         5.24927288719728    4.53192661085123    0.56633050762516
H         5.71396778310671    3.57039332238463    0.41874786168713
C         4.75000689887494    5.26242215240283   -0.50408298703128
H         4.81404878788128    4.87821145080236   -1.51078195669807
C         4.17338138885131    6.49276397741160   -0.25641668648488
H         3.78191028545832    7.08236345429655   -1.06930694645617
C         4.09351742494677    6.97298170935885    1.04989293047961
C         3.53129836320436    8.25448204743864    1.44790290237451
C         3.57900028328825    8.51061786552124    2.83608157033480
C         3.06318535978352    9.71889754242126    3.28971127695485
H         3.07812869387769    9.96191053492377    4.34383968678985
C         2.51175369416871   10.62872072958153    2.40287945974922
C         2.48164266035237   10.37582140096675    1.03620190986503
H         2.05746011401529   11.10389351566024    0.35955699180321
C         2.98820256889286    9.18562392619359    0.56196013260317
H         2.95767487155009    8.98703325421923   -0.49917198819400
C        -0.00450265387579   12.13825087684286    2.43997548348951
C        -0.78137251918223   13.29252855306592    2.39426808194955
H        -0.36968749203426   14.24893462434618    2.67997617436916
C        -2.09271379044872   13.19960137611822    1.97340942329414
C        -2.66603820711537   11.99960870646222    1.58866121440328
H        -3.68937884316599   11.94478467979511    1.25776837071990
C        -1.86490258671504   10.87316021224650    1.65209501009984
C        -0.55082197976807   10.91370985425526    2.07491477119566
H         0.02781870730172   10.00392252239843    2.11694930432325
C         2.83614431744976    7.60365989368541    6.49286332652671
H         1.98417965818978    7.15866767482318    5.99736513263082
C         2.74817812285449    8.03183024878910    7.80328155795815
H         1.82490391617457    7.91806868188247    8.34783806310227
C         3.86687500928021    8.60842790774745    8.39837872040168
H         3.82897852146472    8.94869242097996    9.42213882018638
C         5.01938554014418    8.73931553169751    7.65590672953886
H         5.91502949254030    9.18250244867190    8.06782283172047
C         5.03999508519286    8.28621325932049    6.33436004949240
C         6.15101748454904    8.36389921350985    5.44212340675584
C         6.02250315128818    7.85672449459505    4.16326256597208
C         7.19783337548478    8.01968409483001    3.39144384023618
H         7.27839644186047    7.68380573981986    2.37003070314705
C         8.23288430535462    8.63677072899159    4.02554704805275
H         9.20128686574034    8.85010541689286    3.60737330765435
C         0.55923679286655    4.38948851266956    4.04993726933385
H         0.01469568226596    5.14974125381483    3.49528698945760
H         0.06866747694472    4.21847140695949    5.00616374226994
H         0.54712118477554    3.45702147489450    3.48947212647874
C         1.99104007695949    4.84397773123433    4.27199654767441
C         2.81365750065999    3.96659492698866    4.98360050660490
H         2.36250258598475    3.04802137175858    5.32857535747328
C         4.16364672934643    4.16056525431091    5.29178921423921
C         4.83238079973571    3.05801276508402    6.09365151600744
H         5.87282775304141    3.31633597544737    6.27483786877117
H         4.78187145193305    2.11596523759593    5.55099728632793
H         4.32202508208894    2.93024891688972    7.04615568944149
F        -2.84246175911623   14.31628427147151    1.92718849533300
F        -2.39195370096912    9.68731787951027    1.29197023992307
N         4.57258934865531    6.23975181386044    2.08360232927507
N         3.94549565176027    7.71588015812795    5.76949899754594
O         2.29923205615820    5.96879940454764    3.80609522347044
O         4.88482323374582    5.13523972925354    4.96751605647133

