118
CSD_code = YEPMOW | q = 0 | S = 0 | Stoichiometry = C43H64F5N2OSi2Y | MND = 5
Y         4.35146217523246    0.50350475123046    9.21222934669010
Si        2.00319285223063   -1.01052911016951   11.51305795214259
Si        7.17649298613578   -1.38790171063556    7.98629746695686
F         0.25010450985001    1.81551249765066    6.88051588576104
F        -1.28879274383716    3.19969494357625    5.15546636764193
F        -0.31153703862405    5.45820668361897    3.96287154879627
F         2.23603649582925    6.27650926060620    4.51554742752138
F         3.80071512865375    4.83270473958793    6.14095770399732
O         4.77706083206783    1.78451752779357   11.61617093956196
N         3.07038530124322    1.09975568521346    7.17676366015042
N         3.45861926199667    2.84157832951428    8.54971500979354
C         2.72133214247778    0.53086302728954    5.93914715748287
C         1.82757588664634   -0.55459193900257    5.91479451153948
C         1.49268459871692   -1.12824601051147    4.69835782744884
C         2.03694139426841   -0.66583233102585    3.51631828591191
C         2.97336421057489    0.34833488043721    3.55209475861581
C         3.33520525563828    0.95568641993654    4.74572903458434
C         1.28862717769667   -1.15410829609781    7.19462827763845
C         1.97386418939759   -2.50399710648648    7.43536723398596
C        -0.22993170592678   -1.33590602514616    7.17765352885640
C         4.46543340973007    1.96253340181574    4.73779925291728
C         5.80068592951430    1.21607136776704    4.63660346530596
C         4.34329851140332    2.97777492371522    3.59811715495809
C         2.91535217131210    2.38333600086063    7.44517527971385
C         2.08899583287593    3.24739890630813    6.53150542720562
C         0.77485885380406    2.87377662145536    6.26002285045853
C        -0.03669970617560    3.59778681116720    5.39616153616145
C         0.45585827993005    4.75099042641578    4.79392313070357
C         1.75208349760796    5.16445508512875    5.07647260160725
C         2.55189744318654    4.41328384782520    5.93345026425368
C         3.46194318575042    4.18993202546042    8.94384411762178
C         2.31639300053592    4.85047918974091    9.41762570300583
C         2.43356257151643    6.15331261288421    9.88543883473327
C         3.64944758761899    6.80398342590163    9.90506857681394
C         4.77617605646654    6.14999314150841    9.44291445899454
C         4.70363920353282    4.85793801523611    8.95127558856779
C         0.95924108719250    4.18514453364981    9.47282399107986
C        -0.07448221946169    4.97769323415651    8.66450417532474
C         0.47851999656339    4.05068132790501   10.92099211763802
C         5.95815761268781    4.17898164458095    8.44678457720977
C         6.74387010984400    5.05513048362077    7.46904792300730
C         6.84768196994941    3.78444311827232    9.62977583245694
C         3.62970188367988   -1.29497495802824   10.59741476469963
C         2.29254127268249   -0.67591097614547   13.38018538976907
C         0.77776867161707   -2.47985851117503   11.42319507109997
C         1.09077694583185    0.52904638291180   10.81412942110918
C         6.64918841301480    0.30984246179312    8.61919961760614
C         8.90056729094584   -1.42652231311656    7.14666565038037
C         7.22732784856133   -2.61545629099852    9.45570707317745
C         5.90230189334910   -2.02498103870581    6.69595855269357
C         4.09093165957266    2.88662037254671   12.20301628737383
C         5.13309196717942    3.64480826468414   13.03968561333306
C         6.25352548406176    2.61283430225479   13.25581943546791
C         5.69187156790458    1.33824696040470   12.61321971064327
H         0.79672000829974   -1.95252024163665    4.67236671971329
H         1.75603242321702   -1.11333253387695    2.57456542839215
H         3.43885647453837    0.66809589997925    2.63266551873600
H         1.54543928768312   -0.48510201999295    8.02607148805163
H         1.77059164259115   -3.18496070909170    6.61133639136341
H         1.60711714404501   -2.95483799970404    8.35475825545518
H         3.05242816639900   -2.37376109204928    7.51714163483179
H        -0.72880404881824   -0.40477290650479    6.92697344798447
H        -0.57219635012817   -1.65649309642718    8.15976998902068
H        -0.52759116171510   -2.09169805956494    6.45520217423680
H         4.47930208745670    2.50434862502962    5.68577547189137
H         5.93699951503551    0.56871953118414    5.50015326397309
H         6.62292260224456    1.92802419503966    4.60001713764960
H         5.82902320305607    0.60450774951690    3.73734468563382
H         4.65013121067772    2.53826154100229    2.65232671966736
H         4.98521265410006    3.83453122326454    3.79131804205928
H         3.31791016979019    3.32830228484409    3.49169314346087
H         1.55402992338447    6.66697088808908   10.24289821454556
H         3.71938753594601    7.81590755998694   10.27541522576544
H         5.72613952165861    6.66200704346807    9.45700265767554
H         1.04038930031879    3.17765445535702    9.05469066251567
H        -0.37220994345794    5.87487074188474    9.20164644493843
H        -0.96499780056034    4.37601683139799    8.49542428977860
H         0.33030076020664    5.28266911055479    7.70113208946658
H         1.18845935377613    3.47806437043357   11.51207218153853
H        -0.48302979670620    3.54284607577387   10.94451617909021
H         0.36195859686367    5.02867010254951   11.38184396986396
H         5.66497894209835    3.26345448371997    7.91892222879317
H         6.09622900836253    5.43133531940591    6.68305202850703
H         7.54027200641783    4.47056042802958    7.01260236845661
H         7.19842334275960    5.90261723004925    7.97613981388829
H         7.11013467858706    4.66369183096955   10.21608041371715
H         7.76615822361138    3.32356959903418    9.27159060494954
H         6.32449722309278    3.07393191126325   10.26685028391890
H         3.54579133629438   -2.20612911192459    9.99511418615207
H         4.41451479524686   -1.50017449113182   11.33566206076576
H         2.83041037900753   -1.49479885656562   13.84670921859120
H         1.35314472982446   -0.55776379895125   13.91101508548533
H         2.87078342085770    0.22875215950093   13.53795697088720
H         0.48692190640977   -2.68752488487381   10.39867677084353
H        -0.12960888221108   -2.27716963289627   11.98345595842767
H         1.21869573537585   -3.38517121756415   11.82767450066016
H         1.80099092570371    1.31017641767578   10.53001144204797
H         0.40909627799216    0.95281536306005   11.54611143045817
H         0.49901109627956    0.28178738938288    9.93738829085070
H         6.85345656606523    1.05660563616294    7.84266598177060
H         7.27987532975438    0.58072560587537    9.47481583247164
H         8.93471573041021   -0.75591624496834    6.29358302193906
H         9.14880452723629   -2.42146606614665    6.79033168220799
H         9.68256323192033   -1.12043477096693    7.83419100771740
H         7.97223391031263   -2.32139782338031   10.18816449406996
H         7.47866262314116   -3.61713703413360    9.12255878566136
H         6.26756449658753   -2.66616088770960    9.96136326367161
H         5.59637567635865   -3.04368379592014    6.91328537790197
H         6.31690127948155   -2.02399863433893    5.69314494324349
H         5.00464414060701   -1.40501889979917    6.67800671851468
H         3.28185059643269    2.50930022221883   12.84373888815092
H         3.67163521558220    3.48956473287516   11.39699999025282
H         5.49930082497007    4.51277546871997   12.49539039081151
H         4.70374568242193    3.98578012757176   13.97904119841071
H         7.16543347698012    2.92354231927428   12.74854352077148
H         6.47997302187450    2.45905685826391   14.30825503850214
H         5.15584341486872    0.73365084787648   13.35698230781921
H         6.44784043542800    0.72099161065934   12.12469509923643

