81
CSD_code = YEPPOY | q = 0 | S = 0 | Stoichiometry = C40H30F4I2O2OsP2 | MND = 6
Os        4.05234305297069    2.06337731106070    2.23300244914706
I         1.32079494211405    2.45433632690257    2.33482532238803
I         8.64497970927696   -0.26591431019503    1.96057145190661
P         3.95624315249008    1.89549547499816   -0.17780530507277
P         3.92091155486191    2.39831477175326    4.61996131906543
C         3.55648464506642    0.23408717626960    2.49604781366781
O         3.20221642833241   -0.82897167241880    2.70848530060531
C         4.55141769379172    3.88002141573433    2.01588047638348
O         4.89027787376516    4.96950464981762    1.88597391809780
C         6.06905555282826    1.40761272868057    2.42352696347813
C         6.62057899404212    0.35502760128336    1.45761336881173
F         6.22539189950633    0.81943410835002    3.66985898164521
F         6.99318479893798    2.42698724569114    2.43420829807092
F         6.63388367300582    0.80102236486320    0.19017436835888
F         5.83906348464106   -0.74189206920574    1.44739152202230
C         2.49709421743089    2.73277424264163   -0.90272867578581
C         1.50612737583147    2.09519372127187   -1.63557078118525
C         0.45976328054452    2.83233194935899   -2.16395855472607
C         0.39666049358397    4.20004696229966   -1.97021178449004
C         1.39241613840984    4.84260726829446   -1.25174294205632
C         2.43751837630574    4.11342073591561   -0.72353385584801
C         5.17031021339363    2.71803128607701   -1.26962703343515
C         6.25266058578355    3.43738153855147   -0.78235537512046
C         7.09817231344157    4.09831655135477   -1.65692828076684
C         6.86768389414327    4.04498037342943   -3.02004755315502
C         5.78566317525913    3.33087675489334   -3.51172881175749
C         4.93574129320980    2.67534679258379   -2.64306515905624
C         3.81187876280571    0.19765137961941   -0.81213643181964
C         4.73791837134465   -0.38557549749595   -1.66876354544003
C         4.58076566979996   -1.70582707713633   -2.05297681487307
C         3.50740614641972   -2.44796361995089   -1.59011941512079
C         2.57766179632583   -1.86797455630985   -0.74164080709907
C         2.72970070260108   -0.55215838309723   -0.34994232968844
C         3.08071368405740    3.87906822562860    5.28644006966232
C         2.68653895796848    4.95956970525098    4.51145682580578
C         2.12509177777665    6.07561110771824    5.10852803242888
C         1.95874587955999    6.12160796164563    6.48052327631286
C         2.35911573391406    5.04795413460717    7.26143049944353
C         2.92264280591740    3.93507148945836    6.67108754709350
C         3.04926273689637    1.02739335075833    5.43206079459311
C         1.71128568979043    1.14295076551519    5.79809962167139
C         1.04725579641755    0.05273445324686    6.33070854414050
C         1.70608133048377   -1.15401674976053    6.49635874652973
C         3.03338678136276   -1.27765431534880    6.11703683964762
C         3.70332812902867   -0.19621757555338    5.57661361554403
C         5.46049473163578    2.62787817120122    5.57875957567433
C         6.31830664890457    3.62489157699908    5.12277716545644
C         7.48931431458604    3.90230277583944    5.79979130175128
C         7.80829096035194    3.19112961599525    6.94516609446532
C         6.94689285111230    2.21458370989336    7.41439158551102
C         5.77332558638892    1.93052347552647    6.73813131833549
H         1.53948441695091    1.02755709332281   -1.79634060654250
H        -0.31189346478445    2.32830394138118   -2.72653681256504
H        -0.42719048144094    4.76669885220960   -2.37662572310765
H         1.35002244839975    5.91054764108992   -1.09921551632759
H         3.21651183643161    4.61332573022547   -0.16150408343916
H         6.45117711165074    3.47438415422950    0.27892807930569
H         7.93837372035437    4.65416478601688   -1.26854877945992
H         7.52886914620716    4.55996986494459   -3.70081125223493
H         5.60164201835212    3.28870583347056   -4.57515821332724
H         4.08364347429826    2.12819197158833   -3.02448060448088
H         5.58232913589394    0.18551844955955   -2.02651310497960
H         5.30647242385469   -2.15734323099642   -2.71335584668335
H         3.39595606407418   -3.47980532182066   -1.88805634349627
H         1.73737726452201   -2.44138023388716   -0.37950187771561
H         2.00086596802190   -0.09754310717335    0.31041741111373
H         2.79248340268149    4.93668710965567    3.43761275344758
H         1.81459211641136    6.90756641398562    4.49470620060321
H         1.51808437532377    6.99153466664868    6.94389634719940
H         2.23327794226030    5.07968115019458    8.33362770055705
H         3.24050596105109    3.10008995619836    7.28133966008903
H         1.18688128215135    2.07679969491101    5.65432331201701
H         0.00796063999551    0.14741129585017    6.60687566291256
H         1.18308735273963   -2.00323220951429    6.91033284862124
H         3.54604377382600   -2.22145543246748    6.23112876304321
H         4.73245903409920   -0.29965429364759    5.25890216612776
H         6.06643309874914    4.17941576116319    4.22767133682546
H         8.15508522109144    4.66830503853037    5.43137916738391
H         8.72775560827983    3.39877618741316    7.47174861683798
H         7.18957732113534    1.66432677042492    8.31174967226080
H         5.11028712869456    1.16536604269598    7.11560951482506

