69
CSD_code = YEPSEU | q = 0 | S = 0 | Stoichiometry = C20H42N4NiO2 | MND = 4
Ni        5.34362665327027    5.21063292389670    6.01305065183855
O         3.52559247686770    2.21020076007954    4.18428044761251
O         6.97440102888465    8.47053527885926    7.56718467366731
N         6.36862537000206    4.27893325277892    4.66217623716075
H         7.06876235460094    4.80727014529129    4.14187600783372
H         6.86397082572019    3.52574677492606    5.15048484573803
N         4.10788582395763    3.79304066673072    5.73551703640696
N         4.30681884008816    6.15158754159557    7.36210583940059
H         3.72110584344449    6.80491575668873    6.83565283455280
H         3.68615890849934    5.59248170584417    7.94876866600702
N         6.54183584443919    6.66772399349152    6.21810924008538
C         7.69800895392377    1.75622707624047    1.22051160116049
H         8.09643474436011    1.04817750382018    1.94383580568884
H         8.50002760174512    2.04164102517106    0.54349680365512
H         6.92329630781639    1.25622779557306    0.64423840464257
C         7.12228100209637    2.98472677858526    1.92302575341307
H         7.93706531513444    3.46472928072806    2.48170659816849
C         6.59242045888980    3.97423875114558    0.88736324628072
H         5.73125816436498    3.55392416762645    0.37339792796993
H         7.36060537874698    4.19020322862197    0.14805074740913
H         6.29607790028458    4.91610294269624    1.34272960757437
C         6.03022669437321    2.53803127314884    2.90228763990266
H         5.21872046267662    2.05491267885618    2.35511748486883
H         6.44342230524765    1.78924846847983    3.58516830155636
C         5.40855467977886    3.65884100435759    3.73082153567960
H         5.01038309722825    4.43749751821884    3.07160106864509
C         4.23015580890835    3.12774309235552    4.58143972779162
C         3.10334157973781    3.28848555215944    6.65762809809290
H         2.53007665740174    2.51418378623102    6.13644281709974
H         2.40684093389123    4.08930024904635    6.93840805029504
C         3.75248770949895    2.68434112727302    7.91412164338120
H         4.52136759701404    3.38724402814267    8.26528093190843
C         4.44093662317662    1.36665296295939    7.57174827583522
H         3.70940665778403    0.63024101238958    7.24783054449097
H         4.97383608667449    0.97270292615930    8.43504238213952
H         5.15248189790156    1.51350706032075    6.76254821358539
C         2.71600112962329    2.47860572171128    9.01394396048981
H         1.94746912062080    1.78572795184036    8.67899546853982
H         2.23232889188697    3.41612254909755    9.28411227038935
H         3.18343336446474    2.06701025664738    9.90569603857726
C         5.60440917145693    4.39462647354573   11.14802433546622
H         5.74232376851048    3.54100718985495   10.48833568413281
H         4.96879091804066    4.08801234657479   11.97546581306241
H         6.57472950235617    4.67943766620409   11.54807076734413
C         4.73446284821941    6.73000414646508   11.35628218393814
H         5.67705639422247    7.07603714461655   11.77356071610456
H         4.09081979003450    6.41651296257319   12.17522237220977
H         4.25782603669798    7.56858311819128   10.85489288269877
C         4.97721363202224    5.56751015680566   10.39681611992997
H         4.00893833605410    5.23508608104837   10.00272524131206
C         5.89097956559600    5.98245697694575    9.23685044838627
H         6.77308046739833    6.48212594696953    9.64090969199769
H         6.23242560792127    5.09313909341454    8.68947459606547
C         5.24642571451424    6.91060820732035    8.20713650548552
H         4.75110555098496    7.75218468187034    8.70606276316899
C         6.35618009522232    7.45363881293597    7.28420613051514
C         7.51431766367235    7.13175393906849    5.24195905913534
H         8.26347585413438    6.35095117769580    5.05659592520764
H         8.03299087239284    7.99542955384227    5.67164767625772
C         6.83019101825348    7.54755042510443    3.92571730262321
H         6.01198624925919    6.83538700119329    3.73047968473148
C         6.21348519331968    8.93554686136531    4.07063845244727
H         5.57023679765508    8.97075445925765    4.94648194000190
H         5.62185527678030    9.19074825222835    3.19364471235633
H         6.99283071704949    9.68391283444005    4.19417341737335
C         7.81625212989270    7.51605978339589    2.76160054493076
H         8.64053986106568    8.19975763025430    2.95203469299127
H         7.32663141330360    7.82107960163215    1.83924101181631
H         8.22980845902576    6.51923090539280    2.61345189894663

