43
CSD_code = YEPWOF | q = 0 | S = 0 | Stoichiometry = C16H14Cl2F2N2O4P2Pt | MND = 4
Pt       -0.31039621266996    2.22501109502773    3.48155391271140
Cl        0.26540086633946    4.06175508057004    2.25061329949479
P         1.14255823083264    1.42248669914142    1.95493233620888
F         1.56049447743458   -0.16891833482223    2.06490982364286
O         0.77674696746268    1.45172818799629    0.43487678326391
O         1.16548204693891    1.43683228201984   -1.74713240694410
N         2.68285291743583    2.06854063430290    2.04304779818233
C         1.64704351948026    1.56181117311913   -0.66454473548074
C         3.03887973574593    1.84008024103872   -0.35629545997243
C         3.91553701067223    1.88336975631367   -1.44850141776303
H         3.50427233363417    1.67835734433990   -2.42472145618353
C         5.24755342926445    2.17957870313954   -1.28023515055421
H         5.91415172048415    2.20799910456706   -2.12693085499586
C         5.72163241767277    2.44452404452782   -0.00131998854851
H         6.76460052490373    2.67884990083519    0.14965683829326
C         4.87658266265706    2.40843650039167    1.08829365740500
H         5.27950454166745    2.60819477375842    2.06668905699741
C         3.51905549191534    2.10322272503508    0.94190811239041
C         3.12460856898071    2.56774001222464    3.32993732770175
H         2.24327711928075    2.64366229393304    3.98050703085071
H         3.55473957320416    3.56432477985648    3.22347520724377
H         3.84838227167413    1.89384039374748    3.79349215639458
Cl       -1.70899571765232    3.28629910209150    4.94715295748368
P        -1.04184762537606    0.55509916261004    4.82601131039065
F        -0.35661944498760   -0.90678703832179    4.63498835433054
O        -2.54941419298446    0.13210256167380    4.76821399024869
O        -4.57744003147850   -0.27473665997097    5.56781325118728
N        -0.73737484918870    0.69107978543646    6.47320055107253
C        -3.51177862447997    0.20615746636181    5.79146233391187
C        -3.09365968731618    0.89911391447343    6.99842696983263
C        -4.10679978463036    1.31391516173767    7.86802711435239
H        -5.12555863035292    1.08157581327687    7.59926596129027
C        -3.80774651619331    2.00577994292386    9.02015479993469
H        -4.59379740272617    2.32882935282041    9.68349692742311
C        -2.48079307770338    2.28994827573130    9.31114115456509
H        -2.23124877957278    2.84365797333470   10.20362684347153
C        -1.46533444556245    1.87981469159802    8.46915782383477
H        -0.44835093611656    2.12694489566054    8.72226070279225
C        -1.74652014209429    1.17693798082262    7.29784143070362
C         0.65083780955649    1.00776704137875    6.76292879059612
H         1.26461120952795    0.49063375487823    6.02376838179042
H         0.91580793421095    0.63764656892598    7.75268113521017
H         0.84296272011075    2.08409286148322    6.70256734523027

