57
CSD_code = YEPWEV | q = 0 | S = 0 | Stoichiometry = C20H22Cl2N4O6P2Pt | MND = 4
Pt       -1.90734146883428    0.91717237305870    2.98314245817011
P        -0.54671463642666    2.50987306784317    2.13107208108806
Cl       -3.30942247222568   -0.67795816305389    3.84051870080727
O         0.02080886974285    3.52918781535062    3.20593700362133
O         0.85397799305941    5.42524589799679    3.97353881632830
O         1.56935630698297    3.93657798909685    0.81766240629999
N        -1.31152153997179    3.52153522848452    1.02183234523937
N         0.80755375646690    1.90130310699948    1.33495068058150
H         0.89988003798430    0.88295567176594    1.35203182006350
C         0.18808089133137    4.91986490301509    3.11981312458394
C        -0.55211182448624    5.58322369127769    2.07039784271937
C        -0.53267068910931    6.98328115549628    2.09006091614175
H         0.06055745109665    7.46056041166826    2.85419079276299
C        -1.24962714476116    7.71489876210300    1.17471994547553
H        -1.23214432376538    8.79261184495744    1.19850252655224
C        -1.99732359957936    7.04358265786079    0.21465678156292
H        -2.57008697574842    7.60147079774076   -0.51038618773931
C        -2.01704060067902    5.66639016502784    0.16621429774418
H        -2.60095856239642    5.18427189730591   -0.59851244021452
C        -1.29849861655791    4.90004776899007    1.08965705620891
C        -2.15356706067470    2.82919136693408    0.06130767944429
H        -3.19273595960317    3.15262094987388    0.14833679197022
H        -2.10377780390140    1.75699314872549    0.28190896681737
H        -1.79894158388421    2.99112786871719   -0.95811801182647
C         1.75700029048971    2.74289123291694    0.80856937102480
C         2.97241852564584    2.05513107290367    0.25800874523108
H         2.67817178981722    1.29924803668357   -0.46590190357069
H         3.50557563101626    1.56333455754529    1.06874555764442
H         3.62443687383215    2.78528020157341   -0.21212673469049
P        -3.26700278833706    2.50944122834612    3.83707918143111
O        -3.83460654331530    3.52875356420734    2.76223942941446
C        -4.00177574934686    4.91948116092370    2.84820705278132
O        -4.66761651803239    5.42481675723374    1.99440741998479
C        -3.26156987144036    5.58293664215731    3.89755016225122
C        -3.28085412869878    6.98301096386568    3.87772595395701
H        -3.87402305558332    7.46029073210896    3.11354615585896
C        -2.56380686790670    7.71466359668369    4.79297920903955
H        -2.58116450914655    8.79238032598795    4.76908282493645
C        -1.81618897377421    7.04337091023503    5.75311792937078
H        -1.24336117058546    7.60127861286388    6.47809383485703
C        -1.79665112355410    5.66617605234162    5.80172430659519
H        -1.21277156512694    5.18409116958264    6.56649622208919
C        -2.51526757671657    4.89978265034983    4.87836406526447
N        -2.50235938692385    3.52125602411791    4.94632210534199
N        -4.62131536830658    1.90086295661903    4.63317934906789
H        -4.71368511335176    0.88256140825773    4.61613024136066
C        -5.57083035872327    2.74248198620789    5.15943840308025
O        -5.38314382688484    3.93615155999845    5.15031117211493
C        -6.78634311250071    2.05482369102466    5.70994196734648
H        -6.49220225487658    1.29887870109522    6.43382405235317
H        -7.31952200574946    1.56311577511963    4.89916832237557
H        -7.43833896982096    2.78498788812898    6.18009336338511
C        -1.66035710231682    2.82902969497776    5.90695411266946
H        -0.62117269440541    3.15238663976156    5.81984103732778
H        -1.71024701868048    1.75680687658340    5.68651581257762
H        -2.01496696257590    2.99116508970627    6.92634815304785
Cl       -0.50478893816527   -0.67989813735834    2.12858673006076

