33
CSD_code = YEQGIN | q = 0 | S = 0 | Stoichiometry = C8H18Cl4MoS2 | MND = 6
Mo        1.38884938429584    2.04442125675276    2.91392229825652
Cl        3.49368058921307    1.86085244082715    2.40620508631125
Cl        1.55426967129719    4.28448741999853    3.72357098674390
Cl       -0.63844627593107    1.72485276199997    3.62856472661490
Cl        0.73515081503447    2.96407403299079    0.81025892462067
S         2.27014625542862    0.94797732623791    5.17525389358708
S         1.06423570927739   -0.48125825088889    2.13595001461096
C         0.66330679552620    2.34992102002535    6.81686946628989
H        -0.19402188429682    2.41481748217232    7.48256780078143
H         0.47493961551135    2.97780018012549    5.94601388341022
H         1.53955507071420    2.73468337389072    7.33351132466320
C         0.88808478568736    0.90503656118282    6.40369621143833
H         0.00929180147519    0.51970792413222    5.88155936793964
C         1.25840809578098    0.03100669411547    7.58869799856404
H         2.20910536271795    0.35008768974816    8.00888449508747
H         1.32900582796586   -1.01835368153754    7.31343571440524
H         0.49336660578907    0.12497234778757    8.35617998659174
C         2.42681919202202   -0.79027685169342    4.60812251143796
H         3.36746146893442   -0.79265236563660    4.05395860987509
H         2.54422446433374   -1.40669752091510    5.49895646933450
C         1.28760799406356   -1.30869083035562    3.75858216733763
H         0.32539272205314   -1.16091021872655    4.25288639119099
H         1.41878389984190   -2.37184529740118    3.55886382879662
C         2.53845623138626   -2.50640225414601    0.94595844160155
H         1.58955585843730   -2.82866581639758    0.52410350414190
H         2.71089214815412   -3.04181183883929    1.87630390579875
H         3.33266771162003   -2.77493303566888    0.25294195022239
C         2.53926988709344   -1.00170927137848    1.14884170064025
H         3.42362641121340   -0.67277476298631    1.69938517381912
C         2.43246942077348   -0.25403631712165   -0.16975898099043
H         3.31495568980879   -0.44527766083874   -0.77558102540402
H         2.35316083095215    0.81998403849175   -0.00130802732009
H         1.55192784382452   -0.58088657594787   -0.71799880039918

