23
CSD_code = YEQGAF | q = 0 | S = 0 | Stoichiometry = C4H12Cl4MoS2 | MND = 6
Mo       -0.00041135433474   -0.00010345486527    6.51730701061445
S         0.10201661432023    1.45271890009129    4.40721632401136
Cl        1.99143144673248    0.59043758661438    7.04009658506651
Cl       -0.90721272108959    1.92598081424355    7.79755907335046
C         1.64077841643439    0.91885714026093    3.61339010093169
H         1.81259441593281    1.53515260803662    2.73527881722628
H         1.50169853218505   -0.12037999673968    3.32658774113762
H         2.46115647453250    0.99974248645811    4.32342605014099
C         0.63038768702568    3.06541998514419    5.04186304270953
H         1.53724089830139    2.94334970059081    5.63036243419824
H        -0.17369326717703    3.43251202317534    5.67452873147171
H         0.78859971950930    3.73617993588947    4.20192383318309
S        -0.10198391605603   -1.45310593824257    8.62685961544867
Cl       -1.99096669806539   -0.59001894303204    5.99354241607784
Cl        0.90830554629373   -1.92524389986020    5.23681068891486
C        -1.64078159577918   -0.91887921976957    9.42044450927761
H        -1.81274222974969   -1.53510396574697   10.29858965286331
H        -1.50158127165635    0.12036515002679    9.70718889800608
H        -2.46113406759636   -0.99968366632635    8.71035318051188
C        -0.63064455903284   -3.06563131169800    7.99197547937753
H        -1.53747089463826   -2.94334789708541    7.40346142229471
H         0.17338208834611   -3.43278548956069    7.35928181367918
H        -0.78896926443803   -3.73643254760470    8.83185257950655

