63
CSD_code = YEQHUA | q = 0 | S = 0 | Stoichiometry = C29H20F6IrN5O2 | MND = 6
C         8.07463078264815    5.95021524952557    5.54480706799278
H         8.14426321685194    6.78814180620911    6.20957881464123
C         8.83030806999741    5.65297590647479    4.40683322942440
H         9.62866016090822    6.23031841615663    3.98934819130193
C         8.33121745180693    4.45829981794162    3.93778191146594
H         8.62334679534719    3.87378454536155    3.08996918343684
C         6.47335863635457    2.98703293363181    4.79199024592131
C         5.56663183287432    2.98640498567684    5.87261839480813
C         4.68615273907174    1.90800187588428    5.92959175377942
H         3.97000010577072    1.84749736230034    6.73577258637307
C         4.69583297433841    0.90309498129399    4.97778602873984
H         4.00127201947226    0.07901161188342    5.04103463932817
C         5.60346433627875    0.95067825636900    3.92610466264161
C         6.50839266759895    1.99727063683321    3.82475170749368
H         7.21144580288796    2.02828810999264    3.00734251801708
C         5.58900793652051   -0.14959970512775    2.90799555360337
C         3.04438590546165    4.50715921796754    8.62544077493437
H         2.43901884768152    4.95962498398939    7.86517417374142
C         2.68333894930418    4.13384314379032    9.92149512049389
H         1.72387093794423    4.23787459384342   10.38358110743455
C         3.82717374589053    3.60545344907807   10.47774601219245
H         3.99489015164549    3.20424930464279   11.45564725176994
C         6.13917813757901    3.29277729027991    9.55131243871654
C         6.83857030123336    3.59202288173964    8.36612010322201
C         8.17797498948951    3.21657691999805    8.32948970097902
H         8.76997461006086    3.41979658415639    7.44947345771860
C         8.79074922191667    2.58597608044061    9.39964959355489
H         9.83249393047202    2.30840635335329    9.34780614955322
C         8.06565952259945    2.31793235566243   10.55278220613562
C         6.72431615757391    2.66568240545825   10.63755293589075
H         6.16988128392911    2.45452303766068   11.53859768689170
C         8.70836163841098    1.61306541640485   11.70946895428832
C         3.99542829341673    7.01617882516822    6.10108204037377
C         4.33330336247492    7.84723481022722    7.21578544045571
C         5.31817687889280    7.48415517573182    8.18818646761943
C         5.56075210028445    8.43001158658729    9.22444916901295
H         6.30676511031027    8.15871327872317    9.95711998897278
C         4.89186032337870    9.61751440456177    9.30450742444226
H         5.10639623987806   10.30222526891518   10.11309334728509
C         3.92822502253293    9.95588358302282    8.34858517608140
H         3.40095456614653   10.89486250189949    8.41639573458905
C         3.66610575199529    9.08256924764008    7.32870397110990
H         2.92809616304452    9.32783122757544    6.57997944689269
N         7.18019552494805    4.99615070277898    5.74402328651058
N         7.33585609562315    4.09006799725278    4.76801906063856
N         4.32023495298139    4.21880199233937    8.41600310497627
N         4.79283215603778    3.67467482903369    9.54377868186600
N         4.41611568221523    5.82270943677417    5.82810895803055
O         3.12095758374470    7.52471031479171    5.19863894701604
O         5.99849416863077    6.40461882064414    8.20002793007433
F         4.36696645847615   -0.33055919419974    2.37033754086791
F         6.42204181768757    0.06768890233854    1.87868420408744
F         5.93912554046285   -1.34000844302495    3.43077524186320
F         8.49531418768994    0.27929102312327   11.67526002465072
F        10.03822258850647    1.77324658483953   11.75515211744030
F         8.23364170921486    2.02496862917002   12.89825685979154
Ir        5.71684946565937    4.63473168069643    7.04496022476316
C         3.81665607704796    5.38073630324346    4.58338047017665
H         4.59427207053236    5.18647315012334    3.83786542005021
H         3.26330912777875    4.45145784915868    4.74235719788134
C         2.90807469722712    6.55759896266653    4.18366947836381
H         3.17687281285794    6.99800537439637    3.21969967549226
H         1.84677961040267    6.29157436493027    4.17106921213190

