57
CSD_code = YEQJEM | q = 0 | S = 0 | Stoichiometry = C27H18F4IrN5O2 | MND = 6
Ir        3.66823687710250    7.29546255144628   17.58059482550040
O         5.38309208956276    6.36070248944897   16.74367124969794
C         6.30197372686279    5.69308545678694   17.32548111862001
C         7.26354065393636    5.03935195041920   16.50332609900938
H         7.13803383391842    5.15175407980400   15.43634574973229
N         4.61403040706214    9.55431662742891   16.14205953796671
O         5.92655657136885    6.01506275888173   21.00295529981046
N         4.50357297296598    6.81245916986285   19.48350811769959
N         2.59119336597805    5.62517561850422   17.71115986530008
F         4.15949610510360   10.51501460237612   13.47969475512359
F         1.09336561674298    7.03795540944767   12.77595536250190
C         8.29182113554530    4.30452177362945   17.01985430582215
H         8.99525236777943    3.82234832677961   16.35544041006247
C         3.05681512926393    7.82342545056364   15.72535965898118
C         3.73111349013364    8.95992455379735   15.23336962556133
N         4.68875959728149    8.99825272796389   17.35836868722751
N         1.36516425306751    5.75281312282973   18.24079866537124
C         6.47077357742155    5.54542800525963   18.73860180299388
C         1.94933520736051    8.04299536304900   18.35702603581557
F        -1.15448773958377    6.39570530488594   19.44397728676772
C         5.57545511461933    9.69565778572806   18.05286308541120
H         5.81843639051817    9.44165546130431   19.06556066029221
C         8.44226030122907    4.16828246921621   18.40403396774949
H         9.25519149497051    3.58496505878625   18.80808220390286
F         0.11709010962208   10.90646683293468   19.63671230664677
C         0.98012647240808    7.04699518599323   18.61218850726707
C         7.54678951836781    4.78374056841409   19.23523878233080
H         7.64705989860901    4.69070982846013   20.30601672528419
C         2.16610001393787    7.19172329638348   14.86622321418612
H         1.62013831554093    6.31381011933097   15.17410624355750
C         1.62112142104663    9.34628237791887   18.71549548413914
H         2.31350604933088   10.15677365492009   18.54845443398951
C         5.59447094943732    6.14818243968586   19.69554126418246
C         6.08090804860494   10.73167217264315   17.26685726122486
H         6.80865884206552   11.46470059150960   17.54597125849293
C         1.96477199800019    7.67311126108126   13.58492124772496
C         2.62200907393952    8.78742506795986   13.09697882394587
H         2.45568355182826    9.14898707398965   12.09637279632353
C        -0.23969503954283    7.36132569638208   19.19541785360536
C         5.44357278408808   10.60995796053684   16.05167236775101
H         5.53919719456589   11.20003674571570   15.16436794936516
C         3.50939346351140    9.42296688097921   13.94315154198474
C         2.76919967629066    4.34458770435310   17.43094007741626
H         3.68286695017707    3.99735186303312   16.99064688332243
C         0.39824368611440    9.63293449983094   19.29535781179711
C        -0.55171040129520    8.66005822189039   19.54784517741608
H        -1.49949774877728    8.89823219481846   19.99989105780170
C         0.75107215353226    4.55462666835232   18.30141952537757
H        -0.23841249649132    4.42931149563281   18.68891140715101
C         3.94188751251093    7.22357486992154   20.75620911652882
H         2.94208085670622    6.79711246247779   20.88107085827297
H         3.84806653856563    8.31201386760974   20.79276823339510
C         4.94571485305651    6.67461558607217   21.78632968579876
H         5.43462278510645    7.46149035535095   22.36829183963892
H         4.50002896921115    5.94871567457542   22.47219261674965
C         1.62718481279661    3.62406627486690   17.78871641620065
H         1.46506664692794    2.57162438816766   17.68473285420423

