87
CSD_code = YEQPIU | q = 0 | S = 0 | Stoichiometry = C37H44FeN4O | MND = 5
Fe        5.19427600016224    5.63130907750211    6.58410849986818
N         5.60161809738987    4.18359805893071    5.25465678242914
N         4.12754054639268    6.59823658274039    5.18669672467723
N         5.02656632366105    7.22276418365783    7.79660247603876
N         6.50801869070706    4.81161547718545    7.86039290754443
C         4.22055933396544    4.94593288048140    3.39544551318921
H         3.86396417620585    4.70077889989724    2.40740242878319
C         3.53681442297947    8.60152145596624    6.44633400196402
H         2.97814653768488    9.52376752665218    6.41777370079024
C         6.41207112336734    6.46261366870995    9.65309505562564
H         6.76886376913873    6.70764538113662   10.64107246182973
C         7.06985653269099    2.79145263364566    6.61535778262257
H         7.61533497252913    1.86153874271989    6.65002035925700
C         6.36102712070894    3.06984363291608    5.46297113747357
C         5.07212972763411    4.04544081751414    4.00523858365976
C         3.79099294126937    6.13684741406557    3.94777127858111
C         3.48473416439971    7.79321786423361    5.32733468230570
C         4.25031445374885    8.32623696892024    7.59652865411804
C         5.55437453193525    7.35953972702093    9.04673641652285
C         6.85001451163258    5.27669661274442    9.09632830672146
C         7.14162834338526    3.61109294263093    7.72481851158756
C         6.33551444744709    2.21086484315802    4.30229249853312
C         5.52937320625870    2.82142363197750    3.39010407956172
C         2.92190111416918    7.07280572794704    3.27476000637446
C         2.73933423560817    8.11376490455365    4.13315866424305
C         4.29029436475392    9.19382387207205    8.75052258765566
C         5.10728825015525    8.58974894081509    9.65722472965665
C         7.74768235311493    4.35788726170508    9.75543178733161
C         7.91985469339533    3.31026428947904    8.90302294898973
C         7.09757397636579    0.93521033833909    4.16454425755179
H         6.64290094301696    0.32223670138393    3.38378851591655
H         7.04847574184543    0.37127490841826    5.09895363995159
C         8.56206107944917    1.19750575705476    3.80447444866553
H         9.10814335013103    0.26007224959254    3.72287846396442
H         9.03800022709550    1.81378912338829    4.56373022675034
H         8.62878847164234    1.72038542368077    2.85323865327547
C         5.18901550316283    2.38010116696026    2.00576490158353
H         4.13380734710653    2.57729981542703    1.80277136214235
H         5.34731766792736    1.30341857389545    1.91782134490681
C         6.05073468292966    3.09853655389915    0.96440313626107
H         5.77996650736337    2.77941712558822   -0.03981986664875
H         7.10267623559879    2.87513396360349    1.12625024248405
H         5.91840189149383    4.17564516688114    1.03593546670245
C         2.39494749581329    6.91511382287811    1.88689053099791
H         1.50250533597569    7.53147315356296    1.76478613939874
H         2.10444763297868    5.87618362984709    1.71570608107364
C         3.44087380892856    7.33119489680777    0.84928165217077
H         3.05018654115279    7.20517047473367   -0.15826275492486
H         4.34111821928965    6.72974877681079    0.95197372061940
H         3.71370273814360    8.37508800706899    0.98787220056909
C         1.90333095673925    9.33552207682659    3.94067427076959
H         1.77780638471444    9.52697042883701    2.87333462031471
H         2.40616022869240   10.20291207589625    4.37442520251589
C         0.52673821641814    9.16568359691495    4.58832223255802
H        -0.07161442547797   10.06441242560831    4.45409571497825
H         0.62758098119607    8.96819408550025    5.65286276025287
H         0.00064796387224    8.32699067382984    4.13803169160307
C         3.53091941997702   10.47096581017505    8.88790861488219
H         3.56613938712271   11.02783150770115    7.94845455435341
H         3.99526549268430   11.09084985492490    9.65761802641261
C         2.07204026675938   10.20824408249483    9.26949561636302
H         1.52401208635565   11.14486617093083    9.34784446564209
H         2.01976410016951    9.69533939324115   10.22682919907814
H         1.58920896379796    9.58104570359155    8.52384101826342
C         5.46714116036365    9.04262072565403   11.03278608415468
H         5.31557402495799   10.12100160688268   11.11327068234115
H         6.52368334626292    8.84156926121363   11.22578091817761
C         4.61349585429013    8.33705697807926   12.08936020739853
H         4.89961440647784    8.66011681289810   13.08813240557127
H         4.73576359623277    7.25866318732238   12.02147582133208
H         3.56158270053033    8.56752304552995   11.93895770610079
C         8.31036857716657    4.53702197958679   11.12653854928410
H         8.58309352783761    5.58318554116405   11.28322151564947
H         9.21901304534744    3.94071745565221   11.22851475076165
C         7.30145340046050    4.10621143925273   12.19416779895772
H         7.71432109976712    4.25172590832514   13.19022475573621
H         7.05068415184580    3.05501300600378   12.07164620981684
H         6.38427432122444    4.68389631610536   12.10773681709903
C         8.77460288876841    2.10001916768796    9.08606046253533
H         8.26592718315806    1.22187013466478    8.68212633476277
H         8.93550961386789    1.92684936603958   10.15162774865239
C        10.12896596750004    2.27025242517548    8.39300433780998
H        10.74045076776690    1.38035814020717    8.52661842875392
H        10.66059448603105    3.12271133064993    8.81014513586639
H         9.99398528499840    2.44387910908628    7.32794561623047
C         3.81147166678958    4.80864645085761    7.26391695453517
O         2.89939452143698    4.27218907467650    7.71321683914023

