89
CSD_code = YEQPEQ | q = 0 | S = 0 | Stoichiometry = C38H44FeN4O2 | MND = 6
Fe        8.10587956201298    4.85305709722438    4.81277132171460
N         8.03101361502349    2.86582733944794    5.24137931514897
N         8.23931911648386    5.27509789318370    6.79815232913080
C         7.85188658926717    1.99887059123826    2.96843600849818
H         7.76110338035971    1.09571964793241    2.38509313442791
C         8.17782185040578    2.99875060189213    7.67253087430393
H         8.20136532325014    2.41174619248328    8.57764843915924
C         7.93079463053158    1.85217626010123    4.34402298721827
C         8.08209687326209    2.30513463439295    6.47672593802796
C         8.24643176630493    4.37543187284279    7.81482008523976
C         8.33145833918954    6.51011280356358    7.35406424559363
C         7.92037612459886    0.58230054308723    5.03591770286511
C         8.01602941449450    0.86459889601788    6.36577463530006
C         8.34263902757072    5.06628851110925    9.08183329528316
C         8.39624999498126    6.39735129366259    8.79444563704153
C         7.86037200375105   -0.75236120971741    4.37087131452582
H         7.15223436276172   -0.72068704345318    3.53945114376734
H         7.50262468494050   -1.49899569711713    5.08268091138348
C         9.23649635602460   -1.17550886824745    3.85095546939365
H         9.17590505680140   -2.14230807032369    3.35568274112881
H         9.94318514780742   -1.25187213156954    4.67384528930254
H         9.61899124108456   -0.44362723179380    3.14332004708686
C         8.08464013558015   -0.08591969235777    7.51427208284140
H         7.65192676207549   -1.04444314532289    7.22073091303190
H         7.49790477964852    0.30031924591860    8.35102386297846
C         9.53032799923947   -0.30682408581524    7.96605667171324
H         9.56431552263703   -0.98527663648159    8.81581030123569
H         9.98915539566244    0.63665943919309    8.25245996497298
H        10.11630505618257   -0.73639473327368    7.15711465091239
C         8.33927659969856    4.40409770656809   10.41923934970374
H         8.78426564902741    5.07307589583850   11.15863866572386
H         8.94665448900967    3.49654823054753   10.38522814197291
C         6.91685058031729    4.04770828138581   10.85832754884500
H         6.93042579962480    3.55003165939561   11.82569221030296
H         6.44697349240976    3.38863518967045   10.13192063502916
H         6.31141743309158    4.94715961219310   10.94070383084027
C         8.46269547940729    7.55084474710104    9.73902410153946
H         9.13935387006206    8.31315138108338    9.34579258600308
H         8.86275620082715    7.21520007637688   10.69786441577058
C         7.07865399852665    8.16558146216132    9.96176039863868
H         7.14429204558549    9.01842511083115   10.63399865832977
H         6.40607642198868    7.43145751774676   10.39884253277571
H         6.65148796653106    8.49626704004731    9.01799221232931
C         9.87835336063152    4.75876708895853    4.71786997020191
O        11.01589062633944    4.69143292409820    4.66186022516485
N         8.18077754983575    6.84028541856859    4.38411611085803
N         7.97251612683011    4.43110055242660    2.82735155614406
C         8.35988062209536    7.70730947034192    6.65702728420540
H         8.45067623360119    8.61046622680965    7.24036083875741
C         8.03399089326620    6.70742234019605    1.95297815124457
H         8.01050487374590    7.29442989985131    1.04786035437290
C         8.28092050593284    7.85395570168089    5.28143871128406
C         8.12964170583918    7.40100746347803    3.14880290534742
C         7.96542255648979    5.33075064888867    1.81068381448799
C         7.88038671086691    3.19609549867551    2.27142331536976
C         8.29127226519302    9.12386666331136    4.58956429452095
C         8.19563389087920    8.84157027686647    3.25972432177669
C         7.86930068608934    4.63990836161585    0.54364896461465
C         7.81568194362089    3.30884890538414    0.83102652837076
C         8.35122123403389   10.45848951551332    5.25469529466274
H         9.05935056280619   10.42674035755774    6.08612163920977
H         8.70896364411992   11.20520845567312    4.54296550717623
C         6.97508371543041   10.88154534623525    5.77466414850318
H         7.03566409699357   11.84827128853951    6.27008519299495
H         6.26839058910246   10.95802894107024    4.95178890664956
H         6.59259357811986   10.14955760639738    6.48219695448682
C         8.12693464850079    9.79201905243181    2.11117151676096
H         8.55957557168592   10.75060624651929    2.40461454098639
H         8.71369145941333    9.40574075696818    1.27445278698613
C         6.68122793816806   10.01275092379806    1.65934724309945
H         6.64720142240491   10.69105177770534    0.80947285536349
H         6.22246581610766    9.06918838528067    1.37309793955161
H         6.09521014808124   10.44242485779729    2.46820377123691
C         7.87268995293556    5.30212889273460   -0.79373980356475
H         7.42767761174570    4.63319960537292   -1.53316493049145
H         7.26535370683186    6.20970110166280   -0.75970348510354
C         9.29512311628140    5.65846986309190   -1.23281101210570
H         9.28158258735519    6.15618883057480   -2.20015448067823
H         9.76501528604068    6.31748584433801   -0.50636786968644
H         9.90050835065380    4.75899155765833   -1.31521210353005
C         7.74928474189972    2.15534948669396   -0.11354958251585
H         7.07254642947359    1.39307345754515    0.27960628208657
H         7.34935686366496    2.49099958088365   -1.07244166174815
C         9.13332587220282    1.54055597843094   -0.33612016433822
H         9.06772264019720    0.68764411788637   -1.00827396255854
H         9.80595382548963    2.27462331348356   -0.77321962304166
H         9.56040080001282    1.20996478804591    0.60772161235464
C         6.33340271200268    4.94558632411783    4.90983793213675
O         5.19580038895846    5.00738807608538    4.97006060736241

