87
CSD_code = YEQZUQ | q = 0 | S = 0 | Stoichiometry = C29H48F5OScSi3 | MND = 8
Sc        3.18589915331645    2.54577684352428    2.01108691762369
C         1.85955594683592    0.65467986282488    2.79008245798673
C         0.88860908554769    1.63565411019581    2.39218930650187
C         0.90343065421665    1.73144088305272    0.98401805042169
C         1.87774613956852    0.81852508626084    0.48903870003380
C         2.46875819845273    0.16247256096952    1.58561452182175
C        -0.14675332294378    2.26344553171146    3.28609444322789
H        -0.33282186077390    3.30229582601837    3.01487961841230
H         0.16344958923692    2.23587707648240    4.32753396612495
H        -1.09205807656012    1.71947875627455    3.20426730123742
C        -0.14107511866550    2.39251176005381    0.12676064294043
H        -0.78587547496187    1.62811193946541   -0.31378644757540
H         0.29486010147349    2.96280242110506   -0.69514588571711
H        -0.76926346242721    3.05747980208131    0.71426051809313
C         2.02392760690780    0.44767885549694   -0.96026042495538
H         2.97423994208007   -0.04706542114468   -1.15540220995371
H         1.94537370077916    1.32030799298399   -1.60871426428573
H         1.22845016974179   -0.24484865214903   -1.24571309784649
C         3.36828484327401   -1.03791247325547    1.48765719159190
H         2.76198970868803   -1.94572358936612    1.47578378499001
H         4.04952831277211   -1.09749199608982    2.33163509056327
H         3.95605566315814   -1.01900450991557    0.57036460590438
Si        2.01925701004049   -0.02639504606875    4.52192541628168
C         3.00556898772297   -1.63683184369415    4.80095378055816
H         2.71812871431053   -2.41936361736269    4.10859113464282
H         2.83514418440429   -2.00760150756283    5.80815193728622
H         4.07196330522842   -1.46862203547592    4.69470032861186
C         2.68773027866285    1.25784336179649    5.76565959828036
H         3.65670164228096    1.62299796178835    5.43209485142103
H         2.81240968738254    0.83136256416520    6.75579496444348
H         2.03629930034962    2.11876109829235    5.86837763810292
C         0.21706025083842   -0.56349521898843    4.97390317130904
C        -0.40732232059253   -1.49872968687131    4.16477956523801
C        -1.71537620413113   -1.92002667060052    4.36767380742276
C        -2.44517204583713   -1.38774342845914    5.42485734534450
C        -1.84883848164987   -0.44803148332442    6.25643561596441
C        -0.53581833710888   -0.05517894483482    6.01641089246005
F         0.27472227468361   -2.03120649915839    3.14231371316117
F        -2.27724626175312   -2.82867844478869    3.55972806102053
F        -3.70610797746094   -1.77632981048674    5.63905820544384
F        -2.53998482256351    0.07240112224514    7.27903917511468
F        -0.00202971410551    0.85702386872745    6.84214595427636
C         2.86714415626733    4.36656207603374    3.27395000372492
H         2.19284946863537    4.00541859627109    4.06960894637133
H         3.82266248651694    4.56480726874827    3.78430526247174
Si        2.19534535035085    6.04139474320675    2.72906735908297
C         0.69691400013767    5.79157695419800    1.54751503251687
H         0.74165057720684    4.82028013332496    1.05837454508584
H         0.65320831710965    6.55385810945712    0.77490305655896
H        -0.23957377597982    5.84035652841218    2.09474540999361
C         3.52773720939892    7.06471884116014    1.80299107378096
H         4.30669280338536    7.38226622855743    2.48816277730502
H         3.10201158538163    7.95872751412763    1.35723950521587
H         4.00761983700166    6.49908355335065    1.01039855174556
C         1.57545429994867    7.15944690192381    4.15853238673871
H         0.79957468921536    6.66431588603429    4.73517850701568
H         1.16281744439678    8.09443077577285    3.79067348665975
H         2.38200385814263    7.40438985125895    4.84287171198405
C         5.22247725539577    1.72801389151115    2.47281110932261
H         5.09473678282986    1.01529896230670    3.30455010853481
H         5.49993786838850    1.11310496766088    1.59926055058816
Si        6.67673816771916    2.84433109652261    2.91822793436545
C         6.60556831509767    4.48098926805425    1.91229567315746
H         7.10950979610113    4.39198597358030    0.95384890434043
H         7.08714709509791    5.29207259219345    2.44861971931535
H         5.57229840493723    4.77311292822305    1.73119007485317
C         6.62600261772990    3.27511742303885    4.78175382950644
H         5.66236530256964    3.68807993371756    5.06371463062091
H         7.38667654079747    4.00367092630869    5.04326794472015
H         6.79582792486284    2.39379576590461    5.39215263022247
C         8.40128585889472    2.07431009556816    2.56199151071418
H         8.55913015529719    1.17534805093963    3.14963838000570
H         9.20432246016153    2.76505218440079    2.80011650709439
H         8.50642971276809    1.80080396832278    1.51572650113745
O         3.72827110722796    3.26404959151483   -0.14053174527534
C         3.14007847778567    4.30559073097437   -0.92857823435896
H         2.66563446243093    5.01669570269484   -0.25191693292840
H         2.38552411387939    3.87617087439236   -1.60299273848309
C         4.28942769190116    4.89357931886026   -1.73467786736100
H         4.89807985336981    5.54011464047275   -1.10232231487859
H         3.94929454381926    5.45626499477491   -2.59997311936860
C         5.05964134165530    3.62854154422088   -2.10409192884041
H         4.61772950581924    3.16291357198831   -2.98555115486578
H         6.11143731770933    3.81769393087536   -2.30243544038649
C         4.86281667074030    2.74532175068311   -0.86737795147125
H         4.66810455534495    1.70254143701595   -1.13697618402806
H         5.72669282212214    2.79055151552739   -0.19909795603915

