67
CSD_code = YERFOR | q = 1 | S = 0 | Stoichiometry = C22H40AuN4(1+) | MND = 2
Au        1.70413533154788    6.97765637459741    0.00020195062029
C         1.96511025985215    7.01550092570314    2.01034786171338
N         1.31907815218149    6.26896699409083    2.92278849079119
C         0.33681821319411    5.25791390320952    2.62474399023084
C         0.99620124746216    3.91601263179767    2.29756436902989
C        -0.04442414718072    2.85018029302020    1.96426890567716
C         0.61172384023157    1.53973742410503    1.54895157138417
C         1.77435046860528    6.55434706706234    4.17846039414770
C         2.72239576997746    7.51289048763991    4.04208234384456
N         2.82634867327109    7.77809640831372    2.70643107424862
C         3.69216881548302    8.78144326930626    2.13863247060141
C         2.93540023920767   10.07578771547264    1.82661940453487
C         2.37254913679122   10.75372975858073    3.07356081267932
C         1.65306359238462   12.04903924542025    2.71901790787194
H        -0.25695951819421    5.59416075344275    1.77048756562957
H        -0.32265618587672    5.14944081325725    3.48859695886943
H         1.59575965861589    3.58829828354700    3.14904925484614
H         1.66945133036905    4.05147995222372    1.44754259926521
H        -0.68416150996729    3.21205663368757    1.15604099898936
H        -0.67879387394946    2.67868818209643    2.83560240631477
H        -0.14419077658994    0.79466131690344    1.31682973164779
H         1.23503040836883    1.15352263842016    2.35135316110843
H         1.23523464225230    1.68350657237796    0.66943523831597
H         1.39553252344762    6.06880421860673    5.05337702682089
H         3.31763720257257    8.01225999499431    4.77758305653495
H         4.12929980802961    8.37982176480706    1.22027487618432
H         4.49469964126302    8.98186573068010    2.85149049483161
H         2.12025439882900    9.84977965948452    1.13503386597378
H         3.62329033335239   10.75917323595686    1.32718420347303
H         3.18762756419194   10.97215613815326    3.76666661733601
H         1.67387442950023   10.08143923959513    3.57729964925125
H         1.26089008557185   12.52246767322972    3.61463442920798
H         0.82213125715233   11.85418132308544    2.04427255090546
H         2.33432906547960   12.74492479237689    2.23522721012433
C         1.44332465996594    6.94019738018750   -2.00997684878528
N         2.09198818676943    7.68441856484731   -2.92244532751115
C         3.07781060613657    8.69199734521211   -2.62440180044121
C         2.42314029765731   10.03638448224076   -2.29797329863706
C         3.46732900199636   11.09826936438853   -1.96324293723631
C         2.81551357665413   12.41144220068186   -1.54970724979422
C         1.63570829490480    7.40060735772234   -4.17810654276079
C         0.68428573675132    6.44541969588687   -4.04169130566274
N         0.57940895856790    6.18061913785730   -2.70603008996365
C        -0.28977511262096    5.18021476695215   -2.13818472243487
C         0.46264434643091    3.88322789920202   -1.82659114652636
C         1.02244580052270    3.20339854585955   -3.07388329491465
C         1.73809115507731    1.90584558678634   -2.71978937017000
H         3.66999636002228    8.35387477383220   -1.76978123416423
H         3.73804850648376    8.79774747629995   -3.48800791535709
H         1.82591603826987   10.36642333659944   -3.15019765252148
H         1.74831873783520    9.90342783972455   -1.44880775215348
H         4.10419974724832   10.73423443343562   -1.15370543980316
H         4.10394461252739   11.26693011791069   -2.83348906314992
H         3.57388632918505   13.15354499197070   -1.31606724776538
H         2.19558348523147   12.79994655787575   -2.35361516578785
H         2.18937642781720   12.27039573195955   -0.67160897778229
H         2.01623372668113    7.88478209159553   -5.05304045532777
H         0.08726411084356    5.94814588676533   -4.77716898099670
H        -0.72528417274486    5.58322107326689   -1.21966231579643
H        -1.09317300300780    4.98267937374565   -2.85087470539554
H         1.27891261360724    4.10637231214666   -1.13540535080844
H        -0.22733383231737    3.20217981739839   -1.32683467480984
H         0.20616076612800    2.98751136084952   -3.76636735620384
H         1.72287688670889    3.87342803524230   -3.57819334622137
H         2.12769541867445    1.43088955582479   -3.61572133364509
H         2.57044731108115    2.09819380912624   -2.04607550764759
H         1.05511434347618    1.21233768135568   -2.23500503283027

