55
CSD_code = YERFIL | q = 1 | S = 0 | Stoichiometry = C18H32AuN4(1+) | MND = 2
Au       -2.56048382862963    0.00054451729121    4.76375307568342
C        -1.28893603179351    1.42133938570774    5.47548443261045
N        -0.22701996493663    1.94775371894489    4.84068461088598
C         0.21982935138999    1.58885560243259    3.50842796107456
C         1.62269193628034    0.98998393463993    3.56609880374633
C         0.15547172266934    2.80245810464148    2.58485639826722
C         0.38241041508678    2.87783316353838    5.63417877889471
C        -0.32010873497979    2.92883470662109    6.79033760920853
N        -1.34095886595141    2.02861548433657    6.67395524780085
C        -2.32795644845103    1.77218523851953    7.70521790223100
C        -1.64944391061663    1.23078325360798    8.96097668164617
C        -3.13358632286197    3.03653042930053    7.99253113870698
H        -0.48318879809543    0.82643590647166    3.15174825217674
H         1.64866931737417    0.14492926755619    4.25014700084134
H         2.34817212341363    1.72809597116744    3.89684184780434
H         1.91447791194712    0.64445744504272    2.57885668226090
H        -0.84540119380538    3.22843716018631    2.58372190185487
H         0.40543364469036    2.50475462614163    1.57088096464714
H         0.85971378334497    3.56860157766667    2.89820800526631
H         1.24990977283191    3.42532213154939    5.33271759398692
H        -0.16600475233430    3.52863074734419    7.66194332864239
H        -2.99581068611071    1.00418648228588    7.29654440083157
H        -1.05927154943563    0.34807273850130    8.72511989887159
H        -2.40144287299889    0.95761750917504    9.69521237557079
H        -0.99653897251185    1.97806909056089    9.40399151775676
H        -3.58107243023229    3.41980275784244    7.07822530470479
H        -2.50397548281703    3.81048677435236    8.42327977963929
H        -3.92788236942312    2.81218779183842    8.69826845027259
C        -3.83156334703673   -1.42162988880250    4.05398776392366
N        -4.89364080170000   -1.94787364773994    4.68870032007402
C        -5.34060089209797   -1.58893869105563    6.02090648486909
C        -6.74381846559777   -0.99089174189760    5.96335337763058
C        -5.27534148642668   -2.80234494969750    6.94464332336605
C        -5.50311827126611   -2.87788784254546    3.89515728861857
C        -4.80057755377220   -2.92888451771225    2.73901177419755
N        -3.77965956317694   -2.02875534880923    2.85545644496638
C        -2.79274245749678   -1.77213620451943    1.82416112547003
C        -3.47120498787231   -1.22984786490388    0.56874063859852
C        -1.98768621860597   -3.03666820178464    1.53607264056420
H        -4.63797259652398   -0.82606373174705    6.37735673319224
H        -6.77043516978105   -0.14612559848394    5.27900166117637
H        -7.46896615161226   -1.72951882675384    5.63308821266152
H        -7.03555069959592   -0.64514631657027    6.95053161639117
H        -4.27413993614552   -3.22754684682052    6.94587175883266
H        -5.52558037796906   -2.50468138252638    7.95855926758262
H        -5.97897382761440   -3.56905602188471    6.63134450967933
H        -6.37069727030552   -3.42529104620904    4.19654773590393
H        -4.95476300632826   -3.52855487934645    1.86733399561163
H        -2.12450399053810   -1.00462524800090    2.23312862505356
H        -4.06082423684649   -0.34689548821349    0.80506270091008
H        -2.71922349861609   -0.95682591062859   -0.16556750625895
H        -4.12464053262107   -1.97658744321169    0.12558463794571
H        -1.54042976868553   -3.42074259213182    2.45015503991542
H        -2.61760145481337   -3.81006452434169    1.10476129562164
H        -1.19324020000023   -2.81222076092207    0.83053858761734

