37
CSD_code = YERMAK | q = 0 | S = 0 | Stoichiometry = C12H20AgClN2O | MND = 2
Ag        0.99103916232071    1.46723003820634    4.81255260339155
Cl       -0.29905155531407   -0.11774188942871    3.89271458148392
O         2.56259233488636    5.43216108536411    2.83486179538619
N         3.24003023647680    3.61020027258355    4.71736418656483
N         2.35959613641158    3.67919696525016    6.66682207279686
C         2.30522288519491    3.02161398831654    5.49398035376687
C         3.85453600850004    4.62988699337083    5.38524815392699
H         4.61387545521930    5.23772638358206    4.93940647447327
C         3.30207431882086    4.66931835629650    6.62103177688065
H         3.50934149063171    5.31704434526674    7.44674232966822
C         1.52755743907146    3.37748508475186    7.81290278643475
H         0.89063125667317    2.53453983004766    7.50677536106437
C         2.38949209184385    2.94931144885566    8.99801255661009
H         3.02117131845134    2.10831478059831    8.72094788060568
H         1.75289091856440    2.64526989893199    9.82393447571969
H         3.02287692245674    3.76704359905696    9.33474500504644
C         0.64290983013953    4.57392348756679    8.15387245076727
H         1.24142518451320    5.41871503108344    8.48722981452259
H        -0.04779962112303    4.30635011930247    8.94829671237478
H         0.06741526497627    4.87595110819099    7.28187910733073
C         3.44649346800129    3.28339845900166    3.33721348282128
H         3.05396252338384    2.27660041477478    3.16437732109072
H         4.51466916047051    3.29981242924516    3.09797626948176
C         2.74160093596355    4.31031464363971    2.43844185818634
C         2.24541830936433    3.81036872772582    1.09255001727909
C         0.83044162421790    3.27209612115206    1.36776655375565
H         0.83810019980931    2.47469479750952    2.11802594178311
H         0.41108279538850    2.86685781899704    0.45057143750333
H         0.18373483197288    4.07097629132650    1.72275657206938
C         3.11967394925866    2.70842638932342    0.49239181162519
H         4.16349998859012    3.01291586752498    0.45469705406303
H         2.79013574061787    2.51130783332483   -0.52497961110073
H         3.04176828492876    1.77745263197946    1.04720017450586
C         2.16153138989068    4.99324284304095    0.12279417074677
H         1.62174917064455    5.81734115907464    0.58136454204634
H         1.64547930106168    4.69827318663860   -0.78672609387903
H         3.15873124772084    5.34077945852741   -0.13864198079212

