65
CSD_code = YERPIV | q = 0 | S = 0 | Stoichiometry = C24H34Cl2N4Zr | MND = 6
Zr        7.92982948250342    2.26969272765376   10.09559452610722
Cl        8.60985028472590    4.04261697250237   11.60288453386334
N         8.06302351024922    0.97913766993651   11.65908668166193
N        10.12166934351610    2.19030048252047    9.49493026964274
C        13.45435443423749    3.62374099840781    6.64416529422111
H        13.64942691443119    3.49558465285321    5.58964436475217
C        10.47311037320604    3.54689906887304    8.99385004791443
H        10.31779570542705    4.25861905718881    9.81503796824642
H         9.77409651040326    3.79967018677879    8.18730737973701
C        10.19534898321626    1.19785601809396    8.40870536494261
H        10.30698279198508    0.20266541779580    8.84694014305733
H        11.06079409690015    1.38697092900829    7.75816063499659
C        10.98318714391338    1.81321645556103   10.62750187210841
H        11.03207947597391    2.67110387688189   11.30827919697322
H        12.00083201015179    1.60049990473522   10.25988165895311
C        12.15928783444803    3.52046073671531    7.12202592716993
H        11.34942396718908    3.33330435898266    6.43040816478733
C        11.88521949591388    3.68153692880291    8.47679840369948
C        14.49527777680727    3.89774797582025    7.51423897915137
H        15.50588988163442    3.97842296381740    7.14273898422406
C        12.93649216293505    3.98241638725264    9.33667949959700
H        12.73815946666157    4.15528681537630   10.38424295652285
C        14.23140639812639    4.08651557634489    8.86030360470952
H        15.03618939258980    4.32182888144084    9.54092855747663
C        10.48608590464279    0.60496057172963   11.43158612166582
H        11.32677698796706    0.25397098925914   12.03595547985840
H        10.17672756565629   -0.21371420706181   10.77583838985557
C         6.97262536384712    1.19176362311571   12.57672014100924
H         7.08858185356854    2.14227118363524   13.14937677287332
H         6.92338769529096    0.37977416633203   13.33272779634254
C         9.31404216826278    0.90819207378394   12.37012265419408
H         9.26309998945496    0.09260800955331   13.12186971213960
H         9.52434954144716    1.84268899265853   12.93487681259408
Cl        7.24952286616504    4.04223170827286    8.58774429621581
N         7.79649817266622    0.97929887554506    8.53187181055833
N         5.73790050719886    2.19038044457018   10.69593952031575
C         2.40531264332605    3.62404316879582   13.54665673558490
H         2.21025653909880    3.49598913701236   14.60119259585405
C         5.38651912779154    3.54702671687590   11.19693850454726
H         5.54182078111521    4.25868377044279   10.37569957148884
H         6.08558544676693    3.79982955031488   12.00342837416786
C         5.66417685742664    1.19801397977626   11.78223460372121
H         5.55242230748648    0.20279940751564   11.34408439933035
H         4.79876933921667    1.38725682661487   12.43279117932152
C         4.87636701720438    1.81324717662539    9.56339521322757
H         4.82742695797178    2.67110132974070    8.88257239967366
H         3.85873584286656    1.60050000214187    9.93103562391619
C         3.70037963459025    3.52078498440385   13.06879348765839
H         4.51026900222553    3.33374814408970   13.76041176915371
C         3.97441965152412    3.68172090679714   11.71399812746798
C         1.36436139467524    3.89787900435876   12.67656192684766
H         0.35374575104240    3.97851278039616   13.04806205962393
C         2.92311901638780    3.98244557525674   10.85409338450747
H         3.12143884139357    4.15524520965313    9.80652202627632
C         1.62820159669185    4.08651378215333   11.33047216371140
H         0.82340138593592    4.32172015808371   10.64983506334292
C         5.37345682492493    0.60493683430311    8.75938727269705
H         4.53276209970524    0.25387809592015    8.15504962422036
H         5.68287026533235   -0.21368717417831    9.41518500825755
C         8.88691153772103    1.19167954071797    7.61419758686464
H         8.77105213721823    2.14214428787145    7.04144453486033
H         8.93609055339102    0.37960451344839    6.85827039610100
C         6.54547633530469    0.90825112004471    7.82084536776348
H         6.59641351368568    0.09260111880510    7.06915713196234
H         6.33511154466233    1.84270857727192    7.25601934571162

