50
CSD_code = YERQES | q = 1 | S = 0 | Stoichiometry = C15H31OOsP2(1+) | MND = 8
Os        7.97013710061376    9.41170964207744    2.35806253175583
P         7.44492033987406   10.92256253048486    4.05640906727703
P         9.34069809648703   11.27561038914837    2.05717222627528
C         8.43859131832802   12.32190587537432    3.31617592934522
H         7.77620316266405   13.02829256470409    2.81252206912716
H         9.07855657361558   12.85849207463403    4.01794877997511
C         5.81348532498364   11.67889886981493    4.39971005307320
H         5.93749717113806   12.56512803080828    5.02059587380093
H         5.18008956843724   10.96173858933453    4.91743615452791
H         5.34003560274911   11.95540565195608    3.46051601242455
C         8.14503908479698   10.79579900033171    5.74914034930824
H         9.18405020549187   10.47722974396880    5.68479271489718
H         7.58304782226301   10.05655521246495    6.31699374990398
H         8.08347803440881   11.75822718411918    6.25490897102262
C         9.43013690938775   12.35198128419536    0.57910646458296
H         8.42558949478688   12.53009786525943    0.20237424612091
H        10.01664616395323   11.86184251059587   -0.19511191940880
H         9.89640575664858   13.30164850116311    0.83811857440827
C        11.07497024034342   11.34498118642726    2.65613488931263
H        11.14236750415231   10.84454703474625    3.62059036734804
H        11.39849057053906   12.38032336776089    2.75272490290148
H        11.72182904142085   10.83275970802676    1.94619501480782
O         9.65020939638394    8.41899773249976    3.78150760930520
H         9.24436533287507    7.76826309582492    4.36568927423414
H        10.30323049969997    7.95486075520620    3.24531672464076
C         7.91182862846131    7.59964918025322    0.97766622692994
C         7.56072285873735    8.74017969753410    0.22287568422054
C         6.38662173492635    9.33616183875651    0.82953111906343
C         5.95894407899217    8.45181749004111    1.89564673793685
C         6.91533608179056    7.42015412452917    2.01878208787382
C         8.97598797680569    6.61223687867854    0.61047066221645
H         9.27506443459071    6.00056948851604    1.45996904961070
H         9.85718748276424    7.11069775263374    0.20932223278360
H         8.59730694691491    5.94023815908597   -0.16113959484389
C         8.18684451226243    9.16510440960972   -1.06508550757414
H         8.02360052114143   10.22218219424534   -1.25512071163561
H         7.73766873220530    8.60182519353826   -1.88420650195885
H         9.25671522523559    8.96921301520999   -1.07192181299664
C         5.53469300149454   10.39236873883122    0.19725535556882
H         6.14089812155342   11.12374874005536   -0.33177735432142
H         4.93420753965300   10.91162780080082    0.94037050078896
H         4.85634024979208    9.93255574456763   -0.52278988494799
C         4.65533019525324    8.53032094166221    2.62071765909463
H         4.28580819625941    9.55110026210363    2.66209788070687
H         4.73955023121585    8.14690970043361    3.63499628430189
H         3.91626476673862    7.92534502497267    2.09365820158591
C         6.78218764744709    6.21609585681141    2.89901073006987
H         6.34717109738567    6.47649677578880    3.86268890652610
H         7.73974769160056    5.72628921338974    3.06758590028830
H         6.12090173067409    5.49005337662741    2.42366551800029

