54
CSD_code = YERQAO | q = 1 | S = 0 | Stoichiometry = C23H17F9N3OPd(1+) | MND = 4
Pd        6.49570747237616    3.15438649879760    3.06651837542426
N         6.45577479327763    2.34343447272053    1.28306634888543
C         6.29615711542361    1.78897025272966    0.29074762392092
C         6.11310069155176    1.10920314076773   -0.94253602514224
H         6.44202184200492    0.07473078218593   -0.84042501268159
H         6.69364137414456    1.59468337599853   -1.72713405570129
H         5.05719177615330    1.12636917872021   -1.21353745466274
C         5.60008365934093    1.49378386536556    3.74881374175064
C         4.22271627604704    1.29332510868848    3.84931029203257
C         3.66418595566683    0.11369469044949    4.31565438044399
H         2.59265018181812   -0.00360951824100    4.38223700516608
C         4.51410379645675   -0.91563557785961    4.69911221550206
C         5.89323525003361   -0.77749047064042    4.60373288521471
H         6.54542703119784   -1.58818470653314    4.89402664596052
C         6.41301589717817    0.41943928175595    4.13375510647441
C         3.39393606465270    2.45699078686929    3.39187005687922
F         3.71737693553006    2.79607616584342    2.11079038043681
F         3.69765561438359    3.57549113736976    4.10233442371202
F         2.08458439701637    2.29470205456921    3.44073024618204
C         3.92910654883538   -2.22504885157963    5.16964285091889
F         2.75686353419094   -2.06103837664556    5.78900539213656
F         3.71012307658934   -3.05452129949737    4.13536896094691
F         4.74031653086239   -2.86695137598944    6.01505014727407
C         7.89789022438985    0.62081565255750    3.97486654983760
F         8.22769477461450    0.82848233821411    2.67136376081067
F         8.32323248603510    1.76744595848167    4.58623321240471
F         8.65387451293538   -0.36564638904433    4.42221979424793
N         6.34262536897379    4.14096820535404    4.82941650203935
C         6.28671361713543    3.50196026363065    6.00019110533620
H         6.43465004735526    2.43092579120833    5.98797525616465
C         6.05308477543481    4.13846104562869    7.20463307822288
H         6.02543657815318    3.56524298758171    8.11659187081736
C         5.85245293072802    5.50804870618364    7.20291803423494
H         5.65461294261968    6.04598086913700    8.11640308823411
C         5.91321085910672    6.17483995936848    5.99342889299824
H         5.77203061969760    7.24116708631194    5.93643019885651
C         6.16121914323779    5.46997478434101    4.82169612400500
N         7.79866520174496    4.67908755869721    2.47930727464680
C         8.97903847993969    4.31345777557130    1.98052808285259
H         9.08133749313938    3.27396851711952    1.68142225099712
C        10.02797463500650    5.20547475206281    1.84376989604726
H        10.96984335465688    4.87552990728084    1.43724134445306
C         9.84148271610429    6.51874362374048    2.24959246668650
H        10.63739826834627    7.24151043220082    2.16203770026330
C         8.61803070829186    6.88786467924692    2.78289921546179
H         8.43686880048051    7.89092279407533    3.13431076977105
C         7.61497103846731    5.93313584013431    2.88373614541499
C         6.25800169282756    6.26357371366278    3.51005140467573
C         5.10749847125631    5.91389337580455    2.55016204391829
H         4.15957414517158    6.11539530938654    3.04550565211103
H         5.13353106827441    4.86143269588081    2.23783177162625
H         5.18277764610469    6.53659281394832    1.65852717541071
O         6.20006157846489    7.62971660538287    3.84062993827158
H         5.87934000656934    8.13203173101601    3.08244486810582

