55
CSD_code = YERWIB | q = 0 | S = 0 | Stoichiometry = C17H29MnN2O4P2 | MND = 5
Mn        0.17789403237246    1.84642113196543    2.33097518358076
N        -0.98221089076988    0.76678334462503    2.53146937689290
O        -1.89472852404503    0.00685972012471    2.52827951341680
N         0.67546473347062    2.43355363042290    0.93373099027689
O         0.88665994509552    2.83114600209899   -0.16626433588913
C         0.92296605943205    2.52215018590917    4.20490775623320
C         1.66866106059012    3.49715303605743    4.74778884042407
C         2.32852354340693    4.59547501138254    4.05145349042176
C         2.58723549848937    5.78496885235519    4.73574311715410
C         3.19690934555622    6.84919400040673    4.10001744318365
C         3.57615550986238    6.74308545372710    2.77173946775237
C         3.34913424487660    5.55978839352735    2.08774516407038
C         2.73603950702566    4.49684854524196    2.72154099896925
C         0.46645111448319    1.48304342433105    5.14115868419851
O        -0.30595400647425    1.94743801276917    6.13761461530323
C        -0.84330949098028    0.98100038276738    7.04084045795809
C        -2.12336597027763    0.36534816265421    6.49375516102857
O         0.78405045013584    0.30784816978293    5.04739275154589
P        -1.27547476845095    3.52575456327591    2.57640404666271
C        -2.52843947863212    3.56133065387364    1.23977248890576
C        -0.68404068763942    5.25353039269489    2.54181740910120
C        -2.34346071064929    3.52137542095103    4.05788033434073
P         1.85965559867510    0.28700806285672    2.51156512448072
C         1.40031355860891   -1.46268789852233    2.76714611934450
C         2.67900040473837    0.11562620664818    0.87062610021258
C         3.36055698974167    0.47850965730760    3.54238845065035
H         1.82731258666627    3.50585247638936    5.82718165043664
H         2.29288793044062    5.87354022615504    5.77299359081995
H         3.38217220413921    7.76505350555392    4.64295867718411
H         4.05619888934844    7.57434406440357    2.27646621061863
H         3.65631403432572    5.46445147887040    1.05614446234792
H         2.57656729140142    3.56506113471864    2.19469300723247
H        -1.03156063552107    1.52767633444118    7.96784886025794
H        -0.09286187066739    0.20247358649638    7.21395008430725
H        -2.49515169929541   -0.38381048253724    7.18727906044671
H        -2.88421384256702    1.13052256373704    6.35656198017500
H        -1.92614450303656   -0.11139647837170    5.53600722698250
H        -3.24088784648623    4.37134748290902    1.40167636066555
H        -2.01934101374314    3.70136208193503    0.28511679756200
H        -3.05303563139030    2.60474070244590    1.21969316380686
H        -1.53692435518249    5.93344344703366    2.54612657832357
H        -0.05340514356901    5.43766025134908    3.40983737837571
H        -0.09132381852223    5.40724391963492    1.64003134538069
H        -3.02603224049344    4.37159236622983    4.02555249959554
H        -2.91337799063817    2.59150907341071    4.07467364481012
H        -1.72036727887716    3.57342843751391    4.95029914825124
H         2.28994237203105   -2.08575673533895    2.66778516491801
H         0.96458211727323   -1.58515550527647    3.75465298727157
H         0.66730190373875   -1.73925959931624    2.00796784546729
H         3.41171923035090   -0.69167520857386    0.89129560821724
H         1.92208671564678   -0.09646589885902    0.11446070996594
H         3.17665412390154    1.04993090023749    0.61129154638747
H         4.08740079119963   -0.27775138600047    3.24384378479074
H         3.77757825004929    1.47310448054906    3.38627270956568
H         3.10472236083601    0.35558026102164    4.59064916561453

