45
CSD_code = YERWEX | q = 0 | S = 0 | Stoichiometry = C11H25MnN2O4P2 | MND = 5
Mn       -1.67148973108866    9.12840832928016   12.25785219096959
N        -0.27013162298734    8.52120827913908   11.78934369614654
O         0.79232763656019    8.20468014313340   11.35989380272991
N        -2.23597864046169   10.55553680158559   11.82213386447071
O        -2.54151923731739   11.63007923281330   11.41973352660026
C        -2.83140193778031    7.87852184852986   13.57376314045190
C        -2.57180053454907    6.65669288979947   14.06405964394122
C        -1.36144759550662    5.82669304687001   13.80430747330304
C        -4.13029292131054    8.42959376839612   14.02820773238913
O        -4.91930491484865    7.90522669412669   14.78514132331428
O        -4.36617688016741    9.64912973416849   13.49293896635726
C        -5.58046535618287   10.27630526020408   13.86143002274026
P        -0.90749770327372    9.90362978396212   14.20770797082236
C        -2.05808913996491   10.61936001304390   15.43506076312458
C         0.08654830227275    8.79407625982466   15.26818783823744
C         0.25736237396498   11.30394795708941   13.98948268888387
P        -2.87508824829743    8.06851492800948   10.70405042417588
C        -4.69493591966592    8.23951723711819   10.68700015949901
C        -2.69383661143824    6.25979881918636   10.50374095002659
C        -2.46887245253083    8.64214902781030    9.00960318079818
H        -3.30563655394181    6.19376983792266   14.72444802838889
H        -5.59966523284625   11.23517569390461   13.34811338798143
H        -6.43501120785315    9.66465873442162   13.56045818630960
H        -5.62436708285890   10.42125077689066   14.94400393940838
H        -1.48878953084058   11.06323288256557   16.25311248691155
H        -2.66503980295032   11.38255905882481   14.94858392562101
H        -2.70945017021966    9.83700904082461   15.82247974384698
H         0.49016579007775    9.35384604524090   16.11277927698000
H        -0.54705042924598    7.98508114287709   15.62718667878348
H         0.90242212477724    8.37587642671381   14.67862930775102
H         0.63545567455452   11.65178420498916   14.95162106459044
H         1.08648916843743   10.97360809433289   13.36190296790348
H        -0.26217758115756   12.11692302798675   13.48012477350143
H        -5.09660757376466    7.78444495013707    9.78041051513048
H        -5.11333874163542    7.74584436446532   11.56298350449998
H        -4.95142629233039    9.29823365562575   10.71666420605013
H        -3.24775648330058    5.92910732882812    9.62429551543032
H        -1.63746732478989    6.01842553068586   10.38710564150187
H        -3.07836981915710    5.76414384800241   11.39331000354239
H        -3.05943693118930    8.10852834754296    8.26387776418966
H        -2.66837534989603    9.71272124378494    8.94359282661624
H        -1.40573649363944    8.47460447788280    8.83032859963429
H        -0.66609182236990    6.34261229932170   13.14356108426775
H        -1.64499976484410    4.87583052707375   13.35114000804122
H        -0.85574743446758    5.59295840506146   14.74214720413438

