32
CSD_code = YERWAT | q = 0 | S = 0 | Stoichiometry = C6H19MnN2O2P2 | MND = 5
Mn        1.86248293154666    8.45849097019752   -0.08545334059878
P         3.56502809405079    8.45848044108745   -1.54121021222264
P         0.05505929786841    8.45847980193120    1.23765961356873
N         2.29285571248675    7.02117663001019    0.45972005047765
O         2.69040646629312    6.02084365417719    0.96508637099102
C         0.47183291379463    8.45848954499094    3.02007034097221
C         3.73228834422349    7.03959046894977   -2.67955770089099
C         5.20497234922405    8.45852256289466   -0.72796846772179
C        -1.09124513791523    7.03950070063182    1.13998909589511
H        -0.43764296029210    8.45849488828669    3.62227519535318
H         1.06521880311723    7.57101089391550    3.24532250837945
H         4.63695903876113    7.14172530151512   -3.28055327853862
H         3.77586681042611    6.12107591617899   -2.09267424465113
H         2.85338819294288    7.00458824913180   -3.32288161005780
H         5.99910264621962    8.45853472079907   -1.47575061110794
H         5.28865989617920    7.57106023079035   -0.09879760738400
H        -1.88325855141935    7.14162168895610    1.88317561460893
H        -1.51643717574460    7.00446466025820    0.13722565789341
H        -0.52984032814940    6.12102479795312    1.31670897018265
H         0.88876646590166    8.45846840135420   -1.31488568300389
N         2.29278606731771    9.89580449444883    0.45977053458697
C         3.73225114246230    9.87739407264070   -2.67953611121209
C        -1.09118785174705    9.87750922474083    1.13998644293210
H         1.06523487060964    9.34595668384890    3.24533075293055
H         5.28863486284927    9.34598684993057   -0.09879508146886
O         2.69048661517552   10.89616609877466    0.96500016651774
H         4.63692675866457    9.77529669526244   -3.28053018200006
H         3.77579668415156   10.79591132829442   -2.09265315136433
H         2.85335515804343    9.91237291688388   -3.32286629226046
H        -1.88320674649797    9.77542873993964    1.88317173247745
H        -1.51638263337996    9.91255502216895    0.13722477406708
H        -0.52975873716243   10.79597334905558    1.31669575265095

