87
CSD_code = YERYEC | q = 1 | S = 0 | Stoichiometry = C39H44AuN2O(1+) | MND = 4
C         8.85965439158637   11.99707386835107    2.27549795235752
C         8.67430348893723   13.28077277169209    2.75067493046227
H         9.12572860631161   13.59686808502596    3.68122674350921
C         7.89747730147780   14.19116751813778    2.04421444032520
H         7.76439891929724   15.19072523021103    2.43013537315166
C         7.29674712258312   13.81657122473335    0.85629434825787
H         6.69380702398716   14.52621701564258    0.31078549581100
C         7.46354505116259   12.53225542061490    0.37009712273795
H         6.98780650162007   12.23832821218792   -0.55282962555465
C         8.24030597970698   11.62063111646365    1.07461761421720
C         8.50303485146844   10.24206886365656    0.70438800411743
C         8.05978895732374    9.58454948130788   -0.43921612877816
H         7.44585383298735   10.11078105268184   -1.15339256797149
C         8.40951270832342    8.26564210470454   -0.66333916554668
H         8.06484031725333    7.76190489384981   -1.55336356991580
C         9.20304459942147    7.59095976454214    0.24661517440596
H         9.48333375782284    6.56376383295995    0.07074131517405
C         9.64902829431011    8.23438271550641    1.39610025735657
H        10.26654512614605    7.70064460610277    2.09964156479311
C         9.29570678641555    9.54464538553856    1.61890877828265
C        13.03243633607565   12.20710444261700    6.08651305880734
H        13.01065104022593   11.16214610376161    6.38416845171596
H        12.57123021956311   12.79795154572690    6.87532541020475
H        14.06784193906314   12.51804249897297    5.98119478334691
C        12.12588253913141   13.91907544865848    4.50818698374845
H        13.08189412282890   14.43067794851514    4.55603253750041
H        11.49318825206554   14.34584780020878    5.28704410117242
H        11.66141813518786   14.10464571476314    3.54184955575512
C        12.28919318707205   12.41882280283400    4.75862637908165
H        10.40531569364798   12.46728399237721    5.37553552570556
C        13.03502998187966   11.70278541605048    3.63582114903343
C        13.76574033522619   12.43992528395162    2.71133593945449
H        13.77543351642908   13.51450254328097    2.75374545895739
C        14.50418271307309   11.81823523143613    1.72134794544651
H        15.06815759596730   12.41709769877804    1.02372151255929
C        13.07921284452449   10.30503151151277    3.52953147818341
C        13.79620244124597    9.66303986029940    2.51509783095272
C        14.51731314256125   10.44339577288830    1.62104190957542
H        15.09027645160913    9.97036844345494    0.84040447845335
C        13.33467942419460    7.75809485107475    0.96233797706373
H        12.38097087215483    8.22630235087291    0.72555716771439
H        13.21410060584873    6.67881530679089    0.91051190708668
H        14.05825522190525    8.05102987295146    0.20753209260657
C        13.80251401986061    8.15972008982041    2.36400002632793
H        13.10740182866133    7.71421136603349    3.08241723620119
C        15.19848267125246    7.60059898311372    2.65184309259117
H        15.92446798899660    7.99031790477125    1.94387516649150
H        15.18846045854124    6.51681139276633    2.56980113276512
H        15.52415075207056    7.86664148603076    3.65520297510082
C         9.44624329322071    7.86636886158666    5.60429261534000
C         8.57012137768517    8.64725515985905    6.36144470885391
C         6.95401536236333    6.86669548862646    6.20991039573675
H         5.97840991018417    6.47351246732622    6.45013744182575
C         7.84013264361265    6.10572993704105    5.47243697730478
H         7.54899830800640    5.12097375095342    5.14605685099965
C         9.10065425993933    6.59083033496461    5.15034984718559
C         7.31628620718810    8.12468708990614    6.64996768043101
H         6.61877513408819    8.70241166997644    7.23508899566625
C         8.96431725089805   10.00256189194552    6.90198890301402
H         9.97781776522994   10.24469583036251    6.56676892593360
C         8.97309084789788    9.97746293483681    8.43306029086824
H         7.97809044681419    9.78721058868869    8.82461239822350
H         9.31575162407072   10.93311788642511    8.82324800160353
H         9.63826857871407    9.19839039556273    8.79904828739083
C         8.02243223107540   11.09156140561224    6.38234170790309
H         6.99952218333022   10.90227046379858    6.69439154122720
H         8.04294903708888   11.12913936673269    5.29235151597837
H         8.31597390482530   12.06294651466277    6.77650214970138
C        10.06727923472337    5.73412850874941    4.36634644508466
H        10.87954204280535    6.36580044757543    3.98786755169902
C        10.67846822716353    4.66993406401429    5.28383942478106
H        11.22194146429890    5.12507003804788    6.10872039144336
H        11.36779337295666    4.04446142034563    4.72201099889374
H         9.89870533355329    4.03666078873100    5.69892014948443
C         9.39069342467572    5.06657419660021    3.16636216916584
H         8.75246933265127    4.24740002269176    3.48445567770226
H        10.14548811573996    4.65783690017419    2.49850645936640
H         8.78528778892776    5.78212009388592    2.61482888164284
C        11.87232716290926    8.07069686997866    6.03138800745842
H        11.85079271015545    7.40619936324968    6.86957834109390
C        12.89591767533437    8.76333442000724    5.47490258017098
H        13.93654249600977    8.80001512933939    5.72272807169369
C        11.04460008745361    9.23583721906539    4.32818026955713
N        12.35988348820314    9.48324186106513    4.44136201625911
N        10.74636850917649    8.37632796610832    5.31421746919623
O        10.96146618021570   11.84934399112954    4.88101152178189
Au        9.92783503805209   10.58891783205246    3.20747301757217

