63
CSD_code = YERZED | q = 0 | S = 0 | Stoichiometry = C19H37NO5Ti | MND = 6
Ti        7.57173626974950    1.50517539829850   19.61239782662164
O         6.40425819790748    0.12471955773040   20.44769538837933
O         8.93323789952465    0.28557814587733   20.36227443762438
O         8.86774970977588    2.19925849945777   18.59322728930968
O         6.12191065885631    2.14656708904006   18.79301225088764
O         7.56217077311787    2.58503824864999   20.96274449895839
N         7.47910668702058    0.06167659637061   17.80274338893160
C         6.51554172592353   -0.01272538666941   21.70030163572977
C         7.75202424812878   -0.05012314263122   22.35299671252053
H         7.79622309221157   -0.17226023914084   23.41837850813354
C         8.92642992699638    0.15258095724644   21.61994874000540
C         5.18845521117665   -0.11254529469904   22.46780518249411
C         4.31383939178529   -1.16278886020476   21.77171972102984
H         3.31678455876811   -1.17548408004489   22.20690344862714
H         4.75275352091652   -2.15333756987011   21.87813573628890
H         4.23267874494024   -0.92876356827975   20.71279778002893
C         5.33377787042579   -0.46798733082780   23.94588396890936
H         5.87920879508450    0.30324456567703   24.48344759424148
H         5.84800338676997   -1.41819041727290   24.07061011585196
H         4.34535445907314   -0.55456983594029   24.39401911028568
C         4.54079480642121    1.27312056642959   22.32244418147547
H         5.12639379064970    2.01684435662366   22.85963833492032
H         3.52772785941792    1.26503742025793   22.72126216909472
H         4.51531417910844    1.55791127560440   21.26985004106952
C        10.29710239019660    0.26817337239461   22.30194899977765
C        10.67463573233730    1.75124844088714   22.16161954930339
H        11.69337417709504    1.92023666144618   22.50704803145864
H         9.99291650838457    2.36288589790053   22.74921225515975
H        10.58699043573446    2.05687858493827   21.11777620451624
C        10.31056366519706   -0.13727267064386   23.77456488804110
H         9.96336210401838   -1.16026254399386   23.90072856247832
H         9.68762763263577    0.52438742574070   24.37050919047568
H        11.32818705309129   -0.07354914857132   24.15617178769933
C        11.29873222502554   -0.59488198606515   21.52524570298640
H        12.30794350734095   -0.43384608885801   21.89839984587534
H        11.26854119492202   -0.33409616702085   20.46990650067340
H        11.05232990698047   -1.64999210189338   21.63081997792896
C         9.49424885898082    1.40272907368926   17.66855664542737
H        10.16368984175911    0.67558086148020   18.17159164954921
H        10.11210135537937    2.01712143257401   16.98559621916823
C         8.43438029740897    0.63458195009622   16.85362754965457
H         7.92160265938544    1.35568267907239   16.21122995055765
H         8.89217390817598   -0.13945678506310   16.21924673582003
C         5.68544128155933    1.69489705349938   17.57557700892327
H         6.10891837954993    2.32008596405390   16.76075663920232
H         4.58280586828530    1.77251819050249   17.50487878381676
C         6.09435374678109    0.21966340634003   17.37419350497121
H         5.94162526104502   -0.09926081451602   16.32796636433132
H         5.47090938311800   -0.39347555696780   18.03116332115540
C         7.79586777514228   -1.33124279290025   18.08029252151523
H         7.66107187487789   -1.96036886809461   17.18458275807393
H         7.14979190782177   -1.70156340963518   18.87741310777694
H         8.83012181509303   -1.40759659904498   18.41611202959682
C         7.13405730174377    3.89338328956767   21.09354362121313
H         6.02478201480857    3.90777751425549   21.03811541374636
C         7.56878948779305    4.45612051297037   22.45709368088849
H         7.23004607649020    3.79601834449637   23.25325983682886
H         7.14929506911814    5.44674473941314   22.61337838546190
H         8.65441316797789    4.51774199670384   22.49437006802800
C         7.68817520616646    4.75585458548614   19.95170440110689
H         8.77723068772013    4.71870250185520   19.97428954921369
H         7.35140839332148    5.78665273907746   20.04490968514010
H         7.34641608378388    4.33002136313695   19.00686101104153

