25
CSD_code = YESFEH | q = 0 | S = 0 | Stoichiometry = C9H11NO2PdS | MND = 5
Pd       -0.02037888058855    2.10790086111912   10.16242548520525
S         0.66833667640970   -0.00604726907360    6.50763252620069
O        -1.89082853246816    2.73558092501862    9.51471932186444
O        -2.78802353873294    4.04030655280233    7.95239515190830
N         0.53417971409491    3.86094772304020    8.96642833522982
C         1.67761692180476    1.54266188405495   11.26482306855145
C         0.81380643910541    0.44544033534673   11.10110133958876
C        -0.52642098204684    0.59307210871628   11.51376250448505
C        -1.86668905524256    3.47156084095180    8.49271736136665
C        -0.40419141245947    3.63922615598840    7.85065451398765
C         0.76669734690123    1.39656369347920    7.51440151892520
C        -0.14291582277651    2.35263246876897    7.14102796237079
C        -0.94420780379540    1.92578434384512    6.04641048972110
C        -0.61950202888397    0.68732411107218    5.60663696230591
H         1.48443113879285    3.99673542041464    8.61684828764665
H         0.25678125746752    4.70744554158936    9.46894512273939
H         1.58228738295461    2.15840491330029   12.16249570601977
H         2.68815596381369    1.47048247754115   10.87521795655622
H         1.10782155866197   -0.40129622805798   10.48218462417086
H        -0.75058508859207    1.15993252359557   12.42361080701660
H        -1.23650005137473   -0.19313202604852   11.27131616301475
H        -0.42985999885390    4.48116944989899    7.14535024907704
H         1.60186051200499    1.46484285324863    8.20395010864620
H        -1.73541970793505    2.52739446603812    5.63758512220423
H        -1.06705200826663    0.12576587334989    4.81145931120095

