48
CSD_code = YESFIL | q = 0 | S = 0 | Stoichiometry = C17H24Cl2IrNO2S | MND = 8
Ir       -0.58286134889116    4.48192103990887    9.68330062756696
Cl       -2.72588328801667    3.86390504178207    8.95776913206014
Cl       -0.67140503407361    2.90491323315628   11.42806357420656
S        -3.23402262884297    8.49430765192312    7.92065730239807
N        -1.78773366256411    5.59623882973898   11.18066844915021
O        -3.71121065490577    6.70497464343901   12.61698663349871
O        -2.52314564927368    8.55267993992007   13.08261749897794
C         0.30156641041192    5.63027228379539    7.94977975399143
C         0.40431870092393    4.21377299025878    7.73238335098328
C         1.22281436606126    3.66606423829776    8.77226193068336
C         1.63765141439719    4.75342505327481    9.62475290412908
C         1.09172349943547    5.95676020429184    9.09599545283726
C        -0.30397637067720    6.58788389693110    6.97840670993642
C        -0.11789029176628    3.50310724689847    6.52844532245759
C         1.74446331797938    2.27093681641864    8.87115353797407
C         2.62114190240197    4.61357791410261   10.73893504384675
C         1.38971617268380    7.33882718689235    9.57183983020889
C        -1.73236785094621    7.04026392764764   11.36390020044455
C        -2.15672571000267    7.80144009012452   10.13405260213062
C        -1.84611976781335    9.17742764099076    9.95683688371353
C        -2.36005865213219    9.68095583845643    8.80835872389980
C        -2.91189132234404    7.30467986865385    9.11511872555561
C        -2.68077244795017    7.53290632789050   12.46906892247831
C        -4.70329913966031    7.08298269415287   13.56373116458321
H        -1.55259065369230    5.12225600701336   12.05903882909036
H        -2.75514036488218    5.32337507279168   10.97044840111300
H        -0.39513560244522    7.58147436671668    7.40764101421579
H        -1.29062625603724    6.25024030435388    6.66879505395848
H         0.32349429535175    6.65420753603774    6.08793695843651
H        -1.12857244510283    3.83221367018875    6.29626858931433
H        -0.13449145516413    2.42753548940463    6.68174567276437
H         0.52043003443385    3.72422705422984    5.67120029821863
H         1.14112691375554    1.58245860061824    8.28577341452893
H         1.74191011909717    1.93485494376463    9.90582734367127
H         2.77090145777594    2.23776812887952    8.50205505278501
H         2.32493328669948    3.80412931363685   11.40362902580824
H         2.69507579606395    5.52863498159680   11.32035388868383
H         3.60746132785766    4.37780538129410   10.33682439394330
H         0.54721959483350    8.00555421281520    9.40264577766393
H         2.24632611116302    7.73080737273213    9.02064493592707
H         1.63945776606929    7.34894602849559   10.63025367294965
H        -0.71780498575130    7.34285049912839   11.64480899488554
H        -1.28102262377688    9.74966870275492   10.67023088059091
H        -2.28148488458715   10.67877491902653    8.42619607405928
H        -3.27172508806765    6.30429857365627    8.96582598248920
H        -5.42537596892523    6.27133390459268   13.58217728426842
H        -5.17961363489799    8.01584557585186   13.25737176368611
H        -4.25258470419460    7.22191476148861   14.54792241923066

