73
CSD_code = YESGIP | q = 0 | S = 0 | Stoichiometry = C29H37AuClN2O2P | MND = 2
Au        5.05313679966838    9.62809025039179    2.43616379573173
P         6.57326445534756    8.00509377878058    2.19286866162493
Cl        3.48234485734915   11.23346709544425    2.69984580036186
O        10.04351751442773    5.50807806257687    6.45309431810451
O         7.05748135026922    3.87439587105160    3.53975658838760
C         7.00318845331307    8.33823410102271    6.22066150721039
H         6.88961641083857    7.25482556963168    6.22012231019816
H         6.37510948779859    8.74666297668159    7.00820919622550
H         6.63032558162946    8.72090011779317    5.26710624186024
N         7.37751392866681    6.10672748474497    3.79010813342077
C        10.49348581468454    9.22169226629027    2.90286427514098
H        10.74684062239964    9.20388052050864    3.95550313199118
H        10.83232604879232    8.29881567111448    2.43497716413613
H        11.02811223373038   10.04956709846321    2.44288546687923
N         9.22994852647894    6.98447310881267    4.93589508111973
C        10.12255677798113    4.72345606575857    3.16659247603282
H         9.86732443331773    3.94969887507082    2.44532909504308
H        10.03469422224040    5.69482335447767    2.68164067440908
H        11.15491454590656    4.58164418530273    3.47966758450077
C         8.71996077043425    9.76563092334164    7.33171147384882
H         7.90050367137306   10.29301572211568    7.79775341928180
C         8.98886676723852    9.41582259456553    2.70286687415438
C         5.38381586310019    6.76294266977256    0.20999117067066
H         5.26324788256343    6.32816265170422   -0.77656668368980
C         8.43252036764703    8.72763857641582    6.45489771248519
C         9.53106835382400    5.71158222631855    5.38030914031692
C        10.02363997380285   10.12699417884200    7.63239721400054
C         8.48540729065143   10.56238997068855    3.58742026715105
H         7.41897077271435   10.72549801409759    3.42532093250962
H         8.65238599677909   10.35157188406096    4.63939634532418
H         9.01344625713575   11.47876918498417    3.33452338167544
C         3.98298344912024    6.53636516011225    2.26354821667025
H         2.96043435144199    6.50990307593074    2.62083456096359
C         9.19047605819110    4.61519424708005    4.38637864363016
C         8.74860271522288    9.79839030016294    1.23795205566457
H         7.67869857492989    9.79205188754939    1.00729758463581
H         9.12398180428029   10.80101636566191    1.04704297543072
H         9.26025732416475    9.11022132942029    0.56990847077794
C        11.05938699205635    9.40484781739213    7.05679946432780
H        12.08033752609822    9.65129493966276    7.30987612802747
C         4.15887636779796    6.90492909550088    0.96395939455515
C         4.95907932101365    6.01679001315105    3.17634910942957
C         4.52138289864153    4.99131354932324    4.17357556191896
H         3.44433577655749    5.03627893518857    4.31226903723091
H         4.79014358599838    3.99279948502201    3.83002383041810
H         5.01367420241442    5.15016792020516    5.13145011145694
C         9.33975380665243    3.24470888886636    5.04392925025156
H         9.01067050104245    2.47035356651923    4.35656436907068
H        10.37652357583472    3.07443882033514    5.31986507960532
H         8.73324296750537    3.19325016665325    5.94487478381799
C         7.76216141259967    4.79231088653263    3.88345404935041
C         6.21418336100276    6.52494818989485    3.12967408172244
C        10.32022909244238   11.24785319830116    8.57944959997816
H         9.40802843161920   11.75471605576486    8.88196759574453
H        10.81682418116328   10.86505001990104    9.47019819837755
H        10.98605348523257   11.97256943796758    8.11366309069474
C         7.86943487665210    6.82218937844165   -0.15211733948927
H         8.71344340871646    6.75115851268997    0.53244563287582
H         7.76450949204349    5.87503908258287   -0.67799017720846
H         8.08663025824257    7.59737201985360   -0.88718130310981
C        10.82169541546798    8.36507684939260    6.17053124092172
C         6.61537630711671    7.14165063520045    0.59900273604620
C         8.33232622585885    7.15237241489495    3.88724372876617
C         9.49753508548229    8.06156464406808    5.84352803686042
C         8.19631608041148    8.15454963577783    2.98068704800072
C         2.95681557885999    7.26595227290521    0.13752765540422
H         3.16143020635456    8.15642564666513   -0.45453393353967
H         2.71343494854365    6.45538534554676   -0.54987128420824
H         2.09310725938522    7.46072053933043    0.76650597826471
C        11.97796300352728    7.57960716104514    5.63048687249681
H        11.77558500170233    7.18265231768210    4.63853293557638
H        12.87350025522562    8.19525816882157    5.59141462649047
H        12.16803880127679    6.73511697216349    6.29326955196999

