49
CSD_code = YESGEI | q = 1 | S = 0 | Stoichiometry = C18H23ClN4O2Rh(1+) | MND = 8
Rh        0.02817397106836   12.93969783199960    9.92069668950481
Cl        0.13990461930802   15.21363383941371    9.94692669658149
C         2.14595372334498   12.71919245490935   10.44586763031364
C         1.32905831284045   12.04764143121089   11.39644509529748
C         0.62449400373946   10.97263931162374   10.71195106807796
C         0.96255677479077   11.02536864279734    9.33947608652736
C         1.85098301941323   12.15841705567795    9.14822995637119
C         3.17565735735484   13.75862988736268   10.71166106186766
C         1.33413272562502   12.24462816730821   12.87335243173966
C        -0.19486517830017    9.93924598764318   11.40235171295619
C         0.58494849344054   10.03284798894821    8.29232038527902
C         2.59200627716525   12.50174302899038    7.90034789104436
N        -1.35294874276885   13.33878850725041    8.42095116254544
O        -1.85622012819378   13.25371382756103   11.08549972849727
C        -2.48209301227921   13.86644297462531    8.91670623424406
C        -1.17555913501970   13.43392956485533    7.10671483805714
C        -2.13584547913517   14.05370572309808    6.30201491832831
N        -3.24510541411390   14.57794652366138    6.77680342340502
C        -3.43155551993523   14.49770920180605    8.09580843288848
N        -4.54171692975274   15.03123688467047    8.65508261230294
C        -4.78963849884430   15.00228524646784   10.02233910962055
N        -3.82013548869797   14.37160823408543   10.81848903244301
C        -2.68338149135360   13.80442947888176   10.34890219342052
O        -5.77513734180546   15.48343947106412   10.50489881935241
C        -5.50596577916150   15.69430966333676    7.79223649289340
C        -4.03789601817533   14.35993537759844   12.25691915064773
H         4.15900830325025   13.28571337357362   10.70297826644725
H         3.16551632077440   14.53045678183303    9.94536917004430
H         3.02714625659423   14.22879220595021   11.67944260203454
H         2.04138385082279   11.54675811783051   13.32444917554650
H         1.63498819372581   13.25563821392838   13.13561365032190
H         0.35074331114051   12.05210020505065   13.29618259130562
H         0.46793005842120    9.27151539881077   11.95466663164914
H        -0.87668640631174   10.39598500996581   12.11735385891340
H        -0.76975986562541    9.34607862476982   10.69671100963097
H         1.33967040152404    9.24511443230087    8.26687972944491
H        -0.37604541415982    9.57193613659690    8.50646465197099
H         0.54136333360022   10.48491819107961    7.30444851376221
H         3.61305850664564   12.12658884210208    7.98272648190360
H         2.13757321657577   12.05148713814484    7.02196195014398
H         2.64660038728743   13.58013585435982    7.76212124700769
H        -0.26613649856033   13.03117313343390    6.68662720732700
H        -1.99652433141102   14.12956840460864    5.23338505677855
H        -6.33279196355991   16.03947521429831    8.40806180449422
H        -5.03137282537914   16.53779096769310    7.29360930528657
H        -5.86193741421970   14.99425615325022    7.03858575396677
H        -3.09939733262135   14.60159648006505   12.75419588690485
H        -4.80268468194802   15.09505282387466   12.49739919819268
H        -4.36915052707779   13.37090198962941   12.57527340272452

