96
CSD_code = YESQAO | q = 0 | S = 0 | Stoichiometry = C34H53BN6OZn | MND = 4
Zn       -0.82698164611540    4.86880406335920    3.70687118164262
O         0.24807832635790    6.00207759751356    2.84838303064469
N        -2.32864650775638    2.58407513482262    3.46357395005483
N        -1.43201118994081    3.25609607462782    2.71768397218638
N        -1.61292306864301    3.24538768004588    5.77789165146953
N        -0.55057411852320    4.02109213732602    5.49338167391730
N        -3.40458278325480    4.50974175225220    4.60633064082869
N        -2.66781463586043    5.52515811204096    4.11859543996219
C        -2.75370776091852    1.49900986499850    2.79666959282379
C        -2.10315510289488    1.47634907288845    1.57690545008443
C        -1.27983395334939    2.60349942515850    1.56405878546818
C        -3.74615425359301    0.52412006151056    3.32011044693260
C        -0.34767024910142    3.05752013118786    0.47597192556658
C        -0.44241318366008    2.12196463962961   -0.73268986662083
C         1.08300651084415    3.04024047073865    1.02194385803922
C        -0.72096742292860    4.48030674689611    0.04723591728304
C        -1.46869577116156    2.70709792612319    6.99917323152239
C        -0.26694649075078    3.15587307786769    7.51592539215571
C         0.28090066421711    3.98447259059899    6.53627805974397
C        -2.45006880514008    1.79290608844905    7.63946591993620
C         1.59978054565983    4.70457779142173    6.56158754145823
C         2.51507697204187    4.04441413006093    5.52457508207107
C         1.39295007164050    6.18213299427847    6.21736784489981
C         2.24310507496244    4.59877882804634    7.94722731174299
C        -4.65467157453525    4.93071928811186    4.85568369540126
C        -4.72005978500795    6.26922353614342    4.51631433437430
C        -3.44577960211628    6.60668648797855    4.05675329769903
C        -5.73868326301106    4.07151952640721    5.39990703492909
C        -2.96017682241585    7.94512759548794    3.57677766995515
C        -4.09031081623185    8.97700328318029    3.64282966565262
C        -2.47978976270850    7.81369615503257    2.12775068587581
C        -1.80858688559421    8.39990741631774    4.48026648218805
C         1.37183240333173    6.68662674815211    2.66806350966161
C         2.63077578003150    6.08413417670718    2.59450905600023
C         3.77627242943527    6.82671946713315    2.38009554365322
C         3.73635653178589    8.20504078413659    2.22300939676092
C         2.48123202564284    8.80551086118793    2.28300536582499
C         1.33193290710945    8.07801688622267    2.49820860251442
C         4.97270054350707    9.05916805572336    1.98647139155506
C         4.83937741265287    9.77491706434620    0.63481041745713
C         6.26329327106200    8.23544945082393    1.96243266163859
C         5.09289847507003   10.09816836398896    3.11046350912264
B        -2.80464985516266    3.11408027817286    4.82056668839576
H        -2.22104953690008    0.73906021158279    0.81069449022199
H        -3.88219079776702   -0.27565250724395    2.59714268894697
H        -4.70631861260274    1.00625937109772    3.49461445999403
H        -3.40713773819866    0.09523924710744    4.26106191471363
H        -0.16496945992653    1.10583896283855   -0.46153416377959
H         0.23625471370878    2.46334905889691   -1.51095934874948
H        -1.45132116605260    2.11510768009477   -1.13884088707410
H         1.14940303829548    3.70510258148825    1.87783020934338
H         1.78115271961943    3.38261120841324    0.26191891728765
H         1.36476226252131    2.03514133363752    1.33131982442208
H        -0.08213741485292    4.80238875154326   -0.77176533482114
H        -0.58804408102977    5.16877876960095    0.87651704433636
H        -1.75732387289074    4.52077377755567   -0.28218625591999
H         0.14228012099557    2.91041223102588    8.47340914329811
H        -2.61100561486783    0.90837196097784    7.02630742587406
H        -3.40911093364202    2.28936521685583    7.77559172467311
H        -2.07416499151315    1.48412998435782    8.61123731733990
H         2.03046094582182    4.05019751969785    4.55202356781041
H         2.72425692833353    3.01280700365882    5.80240006166595
H         3.45448047641075    4.58644132097015    5.44985721612663
H         2.34474508089439    6.70783594944402    6.23025272071309
H         0.72517615589375    6.65100530585285    6.93736196608516
H         0.96482263751817    6.28682994656810    5.22551921522150
H         2.44826675813052    3.56236333557419    8.20454052734911
H         1.59484676511882    5.02794234297298    8.70783361190687
H         3.18471813939412    5.14282777278978    7.95321332087499
H        -5.57973419125937    6.90102403680969    4.59619237653625
H        -6.64765638831398    4.65829380532542    5.50153834745392
H        -5.46493225910290    3.67542547397918    6.37606995478252
H        -5.93480979741357    3.23107762537241    4.73674475492974
H        -3.72431395082796    9.94134662207097    3.29757163934549
H        -4.45021006365996    9.09506899178111    4.66243724834794
H        -4.92221527370329    8.68178699201622    3.00752139787942
H        -2.16696276967962    8.78342204394735    1.74681860440610
H        -3.28085258770070    7.43660508006049    1.49479163770641
H        -1.63865675141428    7.12870853365365    2.07333376840669
H        -1.45262386571599    9.38036482083909    4.17226642858446
H        -0.98482059199325    7.69421545805090    4.41953763111733
H        -2.13952923178193    8.46241063211985    5.51551235441629
H         2.71611227490745    5.01295778025554    2.70070183257479
H         4.71440005489566    6.29525375233260    2.33553838740401
H         2.38835169860155    9.87541862611701    2.15844684600689
H         0.37739425240981    8.57896868872008    2.53231009848233
H         5.72102344376304   10.38298411055187    0.43923127066307
H         3.96709625588109   10.42238089047298    0.61767662896611
H         4.73658317764620    9.04565446624624   -0.16613727522918
H         6.24324966777019    7.50269310523933    1.15912807026849
H         6.41507362476653    7.72114814569637    2.90869560891527
H         7.11387138149543    8.89454933277744    1.79634869057859
H         5.17405481791269    9.59963444658718    4.07431748861519
H         4.22430694169838   10.75009492173853    3.13807722325038
H         5.97824592930586   10.71443773147291    2.96355773501020
H        -3.61131295588339    2.38833373129736    5.27847283024705

