59
CSD_code = YESXAW | q = 0 | S = 0 | Stoichiometry = C23H24ClN2O8Rh | MND = 4
Rh        7.14162846603692    9.96320794970916   15.14518634450437
Cl        8.69419765639985    8.41802749228414   14.78430117329571
O         9.63992502037865   12.33625560387495   12.19725307491495
O        12.16352728493661   11.97497382334167   12.06002453635876
O        13.66822614795886   11.17427403580258   14.34331595533501
O        10.69638849131713    9.86722469213665   23.43287483858280
O         8.42843842519325    9.86031772779957   24.51433372495985
O         6.02347705854913   10.20150576619492   22.96237956474162
O         4.92327387072706   11.87126901396950   15.77708776224426
O         5.86130670900704    8.58654495649406   12.83452257075387
N         8.22749546119434   10.50545403878156   16.81469435741026
N         7.84206366624310   10.26405693126843   18.07523086845679
H         6.94197874216755    9.84833766961821   18.26708941371073
C         9.48696850691032   10.94502292575585   16.87515049714099
C         9.90440771713283   10.96813842929170   18.21489038739770
H        10.85212502194017   11.30392975580312   18.57912535674120
C         8.82746155613559   10.52516768945687   18.96526557589592
C        10.23202819517425   11.28489774520079   15.67214878851496
C         9.55111457881398   11.75617073601091   14.55003114782813
H         8.49685610988444   12.01075196709706   14.63775207535713
C        10.22820358574363   11.94585688376858   13.35778426222512
C        11.61999367562817   11.72478555554410   13.28200815770114
C        12.30827684791513   11.31958902129998   14.43604170503985
C        11.60307761791431   11.08302074315288   15.61103751128118
H        12.11160926505449   10.71320710373706   16.48507212865008
C         8.23485686364578   12.35370447853567   12.14107708858914
H         7.80295838317258   11.40431262096640   12.49651046736622
H         7.98393751059106   12.49600461993206   11.09108885829419
H         7.81548308609389   13.17981267200135   12.72564928692635
C        13.34285785789807   11.31257829953220   11.65947113312845
H        14.22936996568554   11.73450081883860   12.13793950980080
H        13.40256928340862   11.46457773478411   10.58176632525811
H        13.29321950136326   10.24205058096133   11.87251197304224
C        14.36890721599505   10.65379375718330   15.44530964954818
H        14.30885175558975   11.31917311822367   16.31294367726616
H        15.40642008825540   10.58312647603811   15.12123375072503
H        14.00788557210007    9.65792477030246   15.72051530400684
C         8.67370329850025   10.35462268945073   20.39654723974894
C         9.80197815528529   10.20352362845545   21.20048548264301
H        10.77420554283440   10.19808966250607   20.73944483268227
C         9.66417217439179   10.03534802114770   22.56531300127902
C         8.38552357361753   10.02459522624765   23.16844548752502
C         7.25384152919031   10.19180179570919   22.35520611201951
C         7.41254051709397   10.34627974706697   20.98312004220071
H         6.54266400751071   10.49787286284788   20.36596204184201
C        12.00649804825187    9.85522742134891   22.92226542903007
H        12.15544759272233    9.03676081693340   22.21021825565519
H        12.65344961830688    9.70282364343688   23.78448637593133
H        12.26199144538672   10.80626048401166   22.44327172668621
C         7.25837714380384    9.69212134451131   25.28144303077680
H         6.62980400669567   10.58463254305945   25.26651410195996
H         7.61370825797374    9.51502644594121   26.29645848215102
H         6.67379328304680    8.83275295839503   24.94622049046079
C         4.87112938921806   10.34562449106039   22.17005745293217
H         4.85788564858865   11.30480729591003   21.64249714552263
H         4.03680092906322   10.31193538181650   22.86913367268344
H         4.76840808486046    9.52713169161541   21.45015037442734
C         5.79426331108042   11.16155036849021   15.52832880677574
C         6.29604768041143    9.17596327532096   13.70911161207664

