56
CSD_code = YESYIF | q = 0 | S = 0 | Stoichiometry = C25H22Cl2O4P2W | MND = 6
W         6.44372538840164   12.74264446713357   -3.67649640782952
Cl        8.57438795286983   12.43753167515954   -4.53341621723683
Cl        4.84323602389969   13.54721337842063   -2.10086503148356
P         7.23968800995612   12.73580551301803   -0.37872485346402
P         7.79666888710250   15.32686084559569   -1.64158405256382
O         5.94214635149193   11.13593559298404   -3.64562292806560
O         5.75320974954576   13.52391296344757   -4.99169818240064
O         7.60586432294758   12.39118232881008   -1.79110696626765
O         7.38734248382290   14.71969591974051   -2.94520410144056
C         6.95808255179668   14.55825369901157   -0.17380367941457
H         7.43304318406884   14.91705025005730    0.73799347217357
H         5.89233203844285   14.79456567098033   -0.16678046744304
C         5.85371443087777   11.75820845213072    0.25128469313225
C         5.38222779336767   10.72373556305396   -0.54955343205603
H         5.79823717198075   10.57599886283286   -1.54410435361069
C         4.34855318560194    9.92686388930392   -0.09065785915699
H         3.97019936685196    9.13170209448233   -0.71412702745477
C         3.79552233642214   10.15807253597417    1.15886179402371
H         2.98703160348352    9.53655100631646    1.51355638393243
C         4.26638926122328   11.19297429005743    1.95144493094361
H         3.82425591857754   11.37759733007926    2.91911886643901
C         5.29757231613317   11.99662036893312    1.50108848875565
H         5.65667828190074   12.81360824969758    2.10890055137109
C         8.71938708101996   12.42133546791928    0.62881127307327
C         8.80542032204217   12.79066322807577    1.96501531443872
H         7.96064817701313   13.24952596374636    2.45792920112751
C         9.97581567163094   12.56708568026883    2.66665930147883
H        10.04342904220780   12.85563195751938    3.70505959341887
C        11.06049963724040   11.97499618002622    2.03890649378981
H        11.97354822485959   11.80679351253622    2.58991026190860
C        10.97251123945424   11.59559248865792    0.71002002271212
H        11.81420237290077   11.12912422445940    0.22154182270352
C         9.80255109697367   11.81503424741115    0.00556752946011
H         9.71783569785094   11.53138804699941   -1.03382714834856
C         9.55467159108730   15.05915121471057   -1.29619086666568
C        10.11781292159912   15.46577397730311   -0.08982396423916
H         9.52071893464827   16.00212678841958    0.63493520329688
C        11.44450576697156   15.18627797497722    0.17615087312423
H        11.88234536844663   15.49752787201493    1.11285180930004
C        12.20990877523983   14.50362195611773   -0.75771929448109
H        13.24466083884583   14.28329549803255   -0.54196471641831
C        11.65219181520138   14.10920676416235   -1.96203001673952
H        12.24495940917160   13.57971267405163   -2.69146537435479
C        10.32355597674117   14.38700942416853   -2.23837604791329
H         9.87912442777370   14.06208792488074   -3.17203394752552
C         7.32164431072067   17.07222361057434   -1.60872173905832
C         8.21173646305371   18.10963049424523   -1.37730198035147
H         9.25130664393770   17.89566988057645   -1.17489002084079
C         7.75743264142739   19.41715863245323   -1.42119750674724
H         8.44551616534086   20.23031623565478   -1.24474213757401
C         6.42628598127079   19.68183687793407   -1.69920821664346
H         6.07930538804440   20.70354195430876   -1.73684003944232
C         5.54060976422687   18.64195697903332   -1.94013637085707
H         4.50663930311417   18.85226309344885   -2.16688944415252
C         5.98559158697311   17.33378160288035   -1.89657709404190
H         5.31561875219713   16.50697262520736   -2.09772639432191

