57
CSD_code = YETBUV | q = 1 | S = 0 | Stoichiometry = C14H36Cl2CoP4(1+) | MND = 6
Co        8.56717081628295    2.85592164247565    9.13095042860762
Cl       10.74760810212598    2.85524914375459    9.13128182765614
P         8.75025188200140    1.23875615602637    7.56469842216851
C         9.91937426657732    1.52613375872139    6.19270378398938
H        10.89744984468908    1.78330232568605    6.59473943221979
H         9.57010310674473    2.33106632727560    5.55079622316924
H         9.99243377536239    0.61106132425611    5.60467682228720
C         7.28357059893660    0.60660109007064    6.66878134141409
H         7.06500856133563    1.24813655897490    5.81856425010695
H         6.40770727519365    0.58948125053728    7.31255725828612
H         7.49907239126719   -0.39942112106239    6.31059016034533
C         9.49632845883797   -0.29100373717340    8.25445924730418
H         9.85069423374509   -0.89037595671116    7.41022702221273
H        10.37488382872925    0.03411201454008    8.81899669192275
C         8.56733567388072   -1.12820336259485    9.13105701132346
H         7.95321563454395   -1.77839161558806    8.50423738159659
H         9.18168672903497   -1.77795188881918    9.75810172575702
Cl        6.38673653355649    2.85552832695091    9.13085369123846
P         8.38387948227425    1.23885121017797   10.69733042986210
P         8.75034974095847    4.47264267111455   10.69754761491282
P         8.38384315032908    4.47274937301054    7.56448171957377
C         9.91948379382007    4.18545767507627   12.06954596417733
C         7.21464449383997    4.18526809776820    6.19259636509270
C         7.21473979251482    1.52589516725602   12.06937767124267
H        10.89750072984692    3.92806341592043   11.66751738207430
H         6.23664115120409    3.92795905267753    6.59472178950668
H         6.23674401883094    1.78342269408644   11.66738594444621
H         9.57006023818104    3.38072158007693   12.71161893520105
H         7.56399098001207    3.38041409801947    5.55063017893077
H         7.56418545541619    2.33052210410895   12.71157803393131
H         9.99266937963793    5.10066882994453   12.65733438142624
H         7.14145645699835    5.10038688300790    5.60466833785470
H         7.14142435812440    0.61063985080517   12.65709092492992
C         7.28368921120568    5.10501999406255   11.59329922504626
C         9.85062705752538    5.10479568091974    6.66867881419615
C         9.85043058372978    0.60643833984603   11.59326699434971
H         7.06445603751989    4.46291702470285   12.44293955549583
H        10.06918467179012    4.46321259848110    5.81850528992884
H        10.06963142453002    1.24850730277276   12.44295264026355
H         6.40806084186505    5.12313972596872   10.94919043319124
H        10.72647188943927    5.12192008965321    7.31248525198956
H        10.72610426914305    0.58833502180348   10.94922169182803
H         7.49968176732386    6.11068161182481   11.95232484977682
H         9.63514359429815    6.11080857358215    6.31046225585053
H         9.63445072836631   -0.39923582043862   11.95226772987214
C         7.63807546908988   -0.29097332446156   10.00736309971036
C         9.49618772078477    6.00235822030443   10.00737238835430
C         7.63792203046234    6.00249614500342    8.25444500390877
H         9.85083635108992    6.60178178632758   10.85144782559207
H         7.28359142527225    6.60189828431761    7.41022473754981
H         7.28347129483763   -0.89040935069020   10.85145621904298
H        10.37456135296176    5.67724739986591    9.44255241770690
H         6.75935742367292    5.67742950387159    8.81900085521839
H         6.75967186928003    0.03404760887415    9.44254294865364
C         8.56698942586159    6.83962734956294    9.13103587608569
H         7.95269774340489    7.48944264083865    9.75806972768433
H         9.18116088171793    7.48974865263788    8.50419577393130

