45
CSD_code = YETBOP | q = 1 | S = 0 | Stoichiometry = C10H28Cl2CoN2P2(1+) | MND = 6
Co       -1.98507664296520    5.63295779826550    9.09807315004453
Cl       -0.48972244743445    4.92389296728440    7.69772277504213
Cl       -3.55513005283932    6.21177688953382   10.47600270052626
P        -3.77402416284823    5.14671382190937    7.90300561272002
P        -1.60826596097866    3.61124701797172    9.89585660760262
N        -1.92205506747450    7.47655864187904    8.08777706807962
H        -1.16307102930085    8.01663752803320    8.50456219841153
H        -1.57916508410270    7.21789438830301    7.15787473480883
N        -0.60422851706356    6.34793177140165   10.51383789487356
H        -0.49858886942076    7.34887925492892   10.34523583934585
H        -1.12299307498115    6.28468418215948   11.39478720679344
C        -5.05069828832586    4.02733013994026    8.56832948479572
H        -5.43931215977853    4.43556884647265    9.49892318482294
H        -4.65504800221897    3.03128238344261    8.74965081205644
H        -5.85651167770458    3.96163995681086    7.83687477577399
C        -3.43898948784291    4.43938670831253    6.25015398970659
H        -2.78991594507236    5.10401062734099    5.68413389463048
H        -4.37718836293361    4.29866108813566    5.71497965648930
H        -2.92969163604990    3.48432239571739    6.35357211187451
C        -4.82258796471436    6.60418367758743    7.51708963569888
H        -5.57427614031595    6.25278267625905    6.80357492835344
H        -5.33001937471786    6.89164900725654    8.44050533791687
C        -4.08282842510856    7.80365692579547    6.93945432971207
H        -3.57581331319801    7.52602827213944    6.01127066737671
H        -4.81166141215048    8.57875761041701    6.69669471289779
C        -3.06961859401859    8.38104442750761    7.91839583659377
H        -2.72677711559901    9.35232569295800    7.54298910596956
H        -3.53807695513046    8.53329890403202    8.89407961157721
C        -1.79106471186058    2.14776529612103    8.82327121597094
H        -1.13142845832208    2.24511417256294    7.96360393197871
H        -2.81545439114282    2.02830817913495    8.47988754097632
H        -1.50552197118855    1.26829324683628    9.40093265526903
C        -2.59386233875518    3.15788671041349   11.36812180220683
H        -2.44573804703542    3.89198972996907   12.15715824834591
H        -2.29200402531577    2.17283420961600   11.72168841498565
H        -3.65151787340948    3.14826772553288   11.11611687272813
C         0.11816631073442    3.35270009217934   10.46647112000521
H         0.12535335863937    2.38164506930823   10.97108118338089
H         0.74640898414096    3.28422009671005    9.57571220249435
C         0.66291879223015    4.42441067158083   11.40154650432612
H         0.04441613006802    4.49385512367969   12.30061137252676
H         1.66734333555488    4.13517509666596   11.71522611827489
C         0.73910111225127    5.78932836240443   10.73112598380766
H         1.32575484113454    6.46417184829027   11.36535653944845
H         1.23926471656647    5.70243076719749    9.76318042878737

