37
CSD_code = YETBUU | q = 0 | S = 0 | Stoichiometry = C16H16O4W | MND = 10
W         6.07978522411498    1.19685426416909    3.30225881185553
C         7.22729054229453    1.90596128698835    1.89284167650054
C         6.93447012923593   -0.35646749212300    2.47494847676623
C         4.68680189311538    4.93051708665099    1.77416346021808
C         4.27356860772434    3.78177734807387    2.30566131595602
C         4.67888009489443    2.47253794922283    1.82876133302997
C         4.08549984754773    1.30592660520378    2.36404043234606
C         4.56602916330279    0.02527183316146    1.91712801231910
C         4.78306870804234   -0.22889308304959    0.42970623668682
C         4.02826440762690   -1.49570158956721    0.02641319098211
C         4.44884087689048   -2.61733225506716    0.96121821410457
C         4.10200613910794   -1.09355758570876    2.76706272221322
C         7.26009507934345    1.01476613696205    5.28080134561009
C         5.97653260238563    0.43464338263617    5.50823747230088
C         5.01464287465175    1.44612863764496    5.37427069940215
C         5.68543616263357    2.66778273377990    5.10074922709058
C         7.06957058536765    2.41087106817041    5.06678593452486
O         7.90979142930654    2.30048560773516    1.04970993802656
O         7.41498871663383   -1.24956784219098    1.92079834411462
O         4.06140712936186   -2.34675118968366    2.30085556104267
O         3.75910712479711   -0.89941255067743    3.91876747571486
H         5.37102299839679    4.94921760936475    0.94260369855886
H         4.36824946372627    5.88365558442460    2.15825529273290
H         3.58640331121071    3.79778507615197    3.14611448242618
H         5.06029876297819    2.46197895223529    0.80904983396572
H         3.26600298230575    1.36029009154261    3.08057299291250
H         5.84106219011229   -0.35796592921341    0.18278781970217
H         4.41079574843121    0.62131154510261   -0.14642849095645
H         4.25582394755487   -1.76757752907021   -1.00371223807250
H         2.95103868737914   -1.33787365457678    0.11714853756071
H         3.96162658703341   -3.56304698016720    0.71156730450839
H         5.53571109514607   -2.75575733122204    0.92621225831295
H         8.21403008012702    0.53555188469148    5.47302239472783
H         5.78409477858191   -0.58268167171099    5.81526327991080
H         3.96223103477146    1.33491426627216    5.59080891753619
H         5.23530451930807    3.65114787559692    5.08579990017784
H         7.85532647455565    3.15200985824715    4.99525413519034

