46
CSD_code = YETCEG | q = 1 | S = 0 | Stoichiometry = C11H26CoN3PS4(1+) | MND = 6
Co        2.05322596042954    0.76206415794476   10.34224526161917
S         0.81180239784437   -0.29937945438300   11.97156178688509
S        -0.10943702276717    0.99452744120559    9.62190072070096
S         2.08049095140797    2.64433395000179   11.59892698544454
S         4.03156587114499    0.60149278330483   11.48933111609294
P         2.88936180784163    1.92096806029143    8.64482482106746
N         2.33156499574460   -0.99451307202199    9.40039179453684
H         3.30926734339840   -1.25157514500233    9.55984975168543
H         1.78046168759728   -1.66184292959228    9.94757749588723
N        -1.78403327225978    0.12543894096403   11.51341249500608
N         4.20008716053127    2.62114237854781   13.22734951804483
C         2.16168662401412    3.55827288080590    8.32812072256525
H         1.07644776046492    3.47118919865879    8.30474585235751
H         2.52308023224968    3.93295566259273    7.37056084608183
H         2.44234603132734    4.24591313914092    9.12435113142138
C         4.67999628073384    2.26598360181451    8.61618874631021
H         5.24723355900896    1.33966393468903    8.68402152120573
H         4.93674588166513    2.89235684319356    9.46950043797421
H         4.92893961836416    2.78934342907605    7.69362369342460
C         2.57806616958344    1.07309387815663    7.04696535239905
H         1.51470242559096    1.19206952355735    6.82207817471646
H         3.15486387435448    1.59719208598714    6.27992475850969
C         2.94177499980537   -0.40833467306039    7.06330865067047
H         2.84948912044234   -0.80312577992161    6.05027376532862
H         3.98139188685700   -0.53653207628085    7.37495104391280
C         2.03330694012719   -1.22334524571981    7.97768460426419
H         0.98930148434591   -0.95502642817042    7.79580858884809
H         2.16096570420809   -2.28748565381201    7.74711159114163
C        -0.53784539835595    0.25728767297658   11.09689868397741
C        -2.11683908614092   -0.51721416830664   12.76179172687242
H        -2.65737193198549    0.18064164920750   13.40341766415927
H        -1.21214050344264   -0.84221986641197   13.27120961562751
H        -2.75193598021012   -1.38444612579303   12.57281772805634
C        -2.90937680471728    0.60433120730602   10.74817266025651
H        -3.51126367765989    1.27503568646117   11.36296246099955
H        -3.53082904350835   -0.23639850194931   10.43395737486559
H        -2.56245810714675    1.14029807267340    9.86720226550391
C         3.53203765105980    2.03801835830041   12.24744793234834
C         3.73002668130942    3.82420983617724   13.87051930617199
H         4.42652076619504    4.64390354164655   13.68357076885422
H         3.66213220580488    3.66073879426258   14.94698874243814
H         2.74850057329977    4.09576678875317   13.48767220482829
C         5.42836913382741    2.07661559112826   13.75401069736917
H         6.19674845047384    2.85060886798150   13.75910869636882
H         5.76211692380435    1.24228244548104   13.14061120813951
H         5.27521167335413    1.72669871813360   14.77674903504529

