73
CSD_code = YETFIN | q = 0 | S = 0 | Stoichiometry = C28H38N6Zn | MND = 4
C         8.99859351802019    8.40821690842610   12.54595525851792
H         7.91046479472821    8.37483286207247   12.54979313060923
H         9.33027362271329    9.43069567764470   12.72274999550008
H         9.38112918014219    7.78599298013903   13.35506170516461
C         9.51292706399364    7.91269411869139   11.24822537886440
C        10.87614926375524    7.95910352894839   10.80493899833288
C        10.88576699443844    7.42774640633674    9.54315108425230
C         9.52194952929729    7.04483114697106    9.24886701852523
C         9.07720432129958    6.47161203866278    8.08675819836081
H         9.79961438038640    6.35799269408085    7.28965658224990
C         7.76751394183689    6.03674528774484    7.81127662617208
C         7.22285027367094    5.63610823314563    6.54618646706754
C         5.89172217908432    5.36403761705586    6.76778785219698
C         5.65919623092282    5.59847859323864    8.16486365547943
C         4.44415307688992    5.52141116382654    8.85609751633518
H         3.59143420838819    5.17930222936098    8.28520436288072
C         4.20571505495378    5.86329261031571   10.16723086333970
C         2.92564123594094    5.81475129650646   10.82954739585629
C         3.14010950508567    6.22584384517195   12.12245528506960
C         4.53663778505915    6.51179970704597   12.22424819289651
C         5.26076426364242    6.97327163956852   13.43291651984130
H         6.29605039563651    6.63980301309133   13.38806384445025
H         4.79530681610689    6.58044930843468   14.33380513590007
H         5.24656110704554    8.06280784377899   13.49139931997932
C        12.01897108604154    8.42818740042457   11.63963416962675
H        11.66901636143613    9.18833228346680   12.34076159498547
H        12.78637184161208    8.88055452305822   11.00676433122488
C        12.62313942922542    7.25772761020705   12.42158408658234
H        11.84382034581694    6.69625376045461   12.93216567451404
H        13.33948367225028    7.61980055290912   13.15536600070521
H        13.13529174541843    6.57754935378617   11.74602184671696
C        12.05314949728605    7.19008984046261    8.64885130700788
H        12.89081878667095    7.80815596503954    8.97700652178285
H        11.80264736626764    7.47793383229351    7.62410807275225
C        12.47499529384521    5.71796967758900    8.67422896100978
H        12.72860104613949    5.41655224132581    9.68722216374844
H        13.34187832519016    5.56196684408453    8.03575144131887
H        11.66503665603214    5.08017377012899    8.32858098164257
C         7.97853597220265    5.59953683067564    5.26041253854973
H         7.46504930385719    4.94753683351785    4.55111133228576
H         8.97563715374000    5.18621488277762    5.43242429882020
C         8.10991700943572    6.99847344431187    4.65277896170666
H         7.12700649449025    7.41143426190628    4.43835356605585
H         8.67768894508030    6.95836025836825    3.72576079641749
H         8.61582801966861    7.66882666197027    5.34415045118595
C         4.85143073729615    4.95481765698463    5.77980872355947
H         4.18151945182659    4.22082293555286    6.23443014053270
H         5.32856810634733    4.48229081458947    4.91900832682815
C         4.03472634849562    6.15834303929834    5.30191160401254
H         3.55389872179169    6.65240024864318    6.14331497957653
H         3.26806232229052    5.84215961674052    4.59797035311434
H         4.68011632944546    6.88118928700592    4.80857345729196
C         1.63843195133695    5.42491773658369   10.18676379564112
H         0.92679379075519    5.11369032088632   10.95364983669567
H         1.80007409643005    4.57632326567275    9.51817441434683
C         1.03985049060896    6.58982085510038    9.39313206698575
H         0.83213291338274    7.42868539812273   10.05299208493314
H         0.11040846048761    6.28576555087351    8.91698429549085
H         1.73262358075650    6.92581943202576    8.62505280539452
C         2.14729840949642    6.38813028810901   13.22511586804718
H         1.26501244724114    5.78056731212592   13.01558632457185
H         2.58043414592542    6.03466353498038   14.16397252929687
C         1.72383928923131    7.84966567525848   13.38610450106437
H         2.58385916180563    8.47362149407678   13.61635650590052
H         0.99894939862385    7.94821441996525   14.19090925179590
H         1.27233378152618    8.21633706865264   12.46713233111816
N         8.72386032835459    7.37427220137102   10.34079917544197
N         6.81042452641680    5.98576575670374    8.75651534274411
N         5.15491035758341    6.31060988541024   11.07396032267694
N         7.92386650898432    4.98917137770095   11.79402515451115
N         8.95161172799548    5.04948921590994   12.35097563738992
N         9.92724020277063    5.06437173814897   12.92687446669368
Zn        7.09690931804169    6.20332229448839   10.64142621786199

