69
CSD_code = YETFAF | q = 0 | S = 0 | Stoichiometry = C28H34N6Zn | MND = 4
C        -4.32373471594600   -2.29605740003541    7.65568707894640
H        -3.27953896661514   -1.99442681286687    7.58893450863526
H        -4.94178018547257   -1.39910678070722    7.72185978378535
H        -4.59947264603009   -2.83192928976828    6.75094450190128
C        -4.52167041233811   -3.14603835600164    8.85402785152198
C        -5.43166224860321   -4.24087853062837    8.98352536731730
C        -5.26062735936747   -4.73336201514322   10.25321659591258
C        -4.23832124642914   -3.92573491507023   10.87249123822664
C        -3.75419776897979   -4.09641465175817   12.14804581771865
H        -4.18218501242345   -4.91028512409246   12.71784169321964
C        -2.79708658346114   -3.31127565606735   12.80388356726198
C        -2.37709204674367   -3.39467580811813   14.17323891679168
C        -1.49265514064263   -2.35767193041422   14.37084406790706
C        -1.39993323812282   -1.66362391234571   13.11922939071661
C        -0.69660157215411   -0.47745868141133   12.84218464413830
H        -0.04386884290956   -0.11076637559580   13.62306853727253
C        -0.78632865804897    0.28982004765292   11.71029937268476
C        -0.08127397966929    1.53198923497345   11.48042825727638
C        -0.47048230658353    1.98001084590528   10.24662096327184
C        -1.39817787686197    1.00869107239477    9.74419270816133
C        -2.08373786257808    1.06897391956725    8.43478004308173
H        -1.34799796284832    1.03835620008310    7.62971041119070
H        -2.63802404469887    2.00246515618109    8.33934455867401
H        -2.77010597796531    0.23060973085171    8.33248048379594
C        -6.38954374940016   -4.69323375311694    7.93167611558156
H        -6.66781697805152   -5.73312577659107    8.11122624511053
H        -5.91042593227038   -4.64396678812068    6.95137253354383
C        -7.65049465783992   -3.82646360376242    7.92277054510352
H        -8.15069003036112   -3.87879765600149    8.88720619295833
H        -8.34042251137415   -4.16784728726151    7.15461139450190
H        -7.39786716620099   -2.78768814742775    7.72456316943042
C        -5.96017502477608   -5.86809526759427   10.91228484331750
H        -6.50282161311058   -5.52212724271668   11.79212726896563
H        -5.24409075813389   -6.62424974879687   11.23323042166792
H        -6.67023246103998   -6.33043589377152   10.23233515569593
C        -2.87047860313125   -4.39494537848878   15.16386968480774
H        -2.14459042111972   -4.49951272452658   15.97244739326097
H        -2.97478961824354   -5.36920659201514   14.68040074433072
C        -4.21981020302565   -3.97498056871791   15.75298064214260
H        -4.12516117963154   -3.02707936488648   16.27713274734603
H        -4.57655991766078   -4.72427381415361   16.45608024586338
H        -4.95994916886724   -3.85411996114794   14.96510645094644
C        -0.79443967744343   -1.95925926355923   15.62754438401372
H         0.22365198720970   -1.63776774889755   15.39474753803875
H        -0.72828395556209   -2.81817561007861   16.29804719270786
C        -1.53310272074863   -0.82303747330763   16.33969904755185
H        -1.61972365176308    0.04390356700288   15.68845566251643
H        -1.00020150561451   -0.53099936139879   17.24183089266542
H        -2.53561617013133   -1.13909252650409   16.61795943122081
C         0.87694494651855    2.15518167895593   12.43080990112986
H         1.75695829097286    1.52302663483353   12.55037299477078
H         0.41914538312657    2.28562081388155   13.41119974438183
H         1.19967985471193    3.12567228785636   12.06442296602994
C        -0.02128707715188    3.20266118894255    9.51904338262072
H         0.12771967270307    4.01553938203953   10.23506963914452
H        -0.79278000104556    3.51429626959231    8.81322229866236
C         1.28442281204883    2.95321948366301    8.75942641211576
H         2.06381089891811    2.62446763637344    9.44313446568411
H         1.61304338427297    3.86833973040138    8.27281060239734
H         1.15310624697482    2.18908862208189    7.99665556868958
C        -0.21436809142419   -1.92022461203429    8.28817152563424
C         0.83620828000946   -0.45066874982562    6.83521379505631
N        -3.83190632098184   -2.95646324020421    9.96606980053454
N        -2.17581792659392   -2.27309555353866   12.20200076289904
N        -1.58992926803052    0.02667718313540   10.60448685707134
N        -0.91080320147304   -2.41420173915527    9.09844794518533
N         0.56725649827802   -1.57659203237444    7.39401464104526
N         1.09870406277015    0.53787354337285    6.30198480780330
Zn       -2.21051610083862   -1.87115050975553   10.33795558645518

