71
CSD_code = YETJIQ | q = 0 | S = 0 | Stoichiometry = C34H29N3O3PRh | MND = 4
Rh        6.47987443874328   10.94244550373266   13.78495796055957
P         7.08492393424551   11.16150814197385   11.63479150857813
O         9.25998925512787   11.87639921177372   14.30510600008861
O         6.09148837061181   10.79485845289315   15.78745426986604
O         4.61373589738593   10.33166590430264   13.44653234572518
N         8.52378627051695   10.32431454886304   11.27699012203700
N         7.68015275975587   12.72115315093377   11.29747170152462
N         6.41322823775514   10.93586403946438   10.07356906119438
C         8.18795859922964   11.51228540589381   14.12838801034191
C         4.99333809675988   10.41348538665481   17.84078514091988
C         5.01126213870802   10.43580692003249   16.32882898365455
C         3.83607341125254   10.06170428928892   15.66686552713789
C         3.70555037833041   10.03348632589052   14.28108471863856
C         2.38273377853150    9.60612802217438   13.68691162682778
C         8.61064204239111   11.71967138798456    9.28810784266603
C         9.24939011806626   10.65947034558115   10.13561552233785
C        10.38286272948891    9.91433811236518   10.05313800821079
C        10.37573983870406    9.04078102374088   11.19671703940146
C        11.24660364843062    8.05201413815887   11.64833223736605
C        10.91877540586265    7.36105500465786   12.79491963277011
C         9.73722128849277    7.62418450269913   13.49064659142790
C         8.85663374564822    8.59784232526366   13.06429508004880
C         9.19777859041024    9.31351618900504   11.92769506863496
C        11.44333065922972    9.95536227577538    9.00735289984594
C         8.44652851022206   12.93365548964313   10.15347667231568
C         8.85666140476534   14.22734938495161   10.08483111425491
C         8.31001497571701   14.88562452585538   11.24178849015194
C         8.36752975140047   16.19604435803886   11.71022704023838
C         7.68841176148172   16.51085167294584   12.86745341080059
C         6.94402101453952   15.55249872389138   13.55792122973067
C         6.86947317083564   14.24740478293842   13.11468762523351
C         7.57321042841857   13.92177075404424   11.96613784973114
C         9.69617588401945   14.87758202857505    9.03968566970381
C         7.22360944275171   11.23419480944298    8.97116892390988
C         6.55227498731866   11.01047108709166    7.81099981318054
C         5.24405955562660   10.54225667675032    8.18099866752120
C         4.12480663840019   10.15278468414773    7.44896278094572
C         3.00140255688665    9.74272072394328    8.13414682467078
C         2.97225165100731    9.71204397850193    9.52958167812796
C         4.06759332957449   10.09320620585906   10.27777605063173
C         5.19516558865379   10.50751270476271    9.59114660192703
C         7.03270727405763   11.19751473367196    6.41290805595930
H         5.96554400904520   10.71386359437814   18.22228369626723
H         4.75739196155561    9.41260769774064   18.19543888474658
H         4.23188932735314   11.09564616861281   18.21268991750126
H         2.98757642687629    9.78061559639372   16.26960541124194
H         2.05412147844411   10.34610350445959   12.95898404552218
H         1.62330296125023    9.48665308554346   14.45263056346561
H         2.51484008773600    8.66044803529147   13.16216106622191
H         9.18529814973791   11.92949048521522    8.38779099654824
H        12.15461217248096    7.83232458887576   11.10743779641188
H        11.58151101191919    6.59163261160872   13.16261893516399
H         9.50751617614446    7.04927071263684   14.37498692204903
H         7.92017391046082    8.79236431534473   13.59119208570458
H        11.20377391096386   10.68634818149193    8.23956656574228
H        11.54888497599105    8.97741481362300    8.53885411304158
H        12.40156599219623   10.21949495377311    9.45354701352792
H         8.92951847088003   16.94566876488282   11.17399579533202
H         7.72166797002884   17.52094804365831   13.24826202993433
H         6.41244242388987   15.84210818688497   14.45173921712527
H         6.27012024929189   13.49917945938093   13.63861247974667
H         9.97368479685617   14.16614167916989    8.26633463650836
H        10.60494832366360   15.28159059750735    9.48446793814548
H         9.15265204983648   15.70153277109243    8.57834678315437
H         4.14133581750700   10.17247464614180    6.36963468330140
H         2.12304045785030    9.43660737179904    7.58478010116609
H         2.07279534907070    9.38192797579445   10.02863112594956
H         4.06684222062075   10.07579625148123   11.35587507086970
H         8.05525923445875   11.56521312124438    6.39654458279931
H         6.39687294920011   11.91100691126046    5.88962982725352
H         6.99284557535617   10.25249794054661    5.87200231675118

