94
CSD_code = YETQIX | q = 0 | S = 0 | Stoichiometry = C39H35BF15NOSiTi | MND = 10
Ti        1.88154386058621   10.38152223127646   10.30044769585958
Si        0.92455053954104    8.08171756148810    8.84731907802460
F         0.96623177480724   14.84975701668111    8.40214241530251
F         2.84631148719659   15.87237882678381    6.50108058778059
F         4.69793442009531   11.82613140806589    8.10324893301622
F         9.20144390028558   14.06217927150874   10.73269967752659
F         3.57477877214342   19.15549101566572   10.41597382368024
F         2.96492863627161   14.94179458135614    4.02197281040650
F         5.90952983360148   15.57207425259099    7.73427755433967
F         4.84729192204240   16.82275593206401   10.22877508459058
F         4.72472895750948   12.77029816111238   11.34759294550025
O         2.59642414109345   12.02843371609846    9.53407337131553
F         8.48203536020282   15.47623341528665    8.50462903758747
F        -0.33189925041265   17.19503811436353    8.62560887506826
F         3.94313403508090   12.43926185733115    3.50509093105912
F         4.82724012993391   10.89645648456453    5.59277674816537
F         0.97193656282305   19.39644168996654    9.61174337625907
F         7.27637201014143   12.71153680845365   12.14087802821297
C         1.64268568858359   15.91698173027765    8.87487692896342
C         4.22837942261601   12.61091147451971    7.11192046903639
C         2.34055014327278    8.36565337678346   11.44284608661973
C         3.58610027546607   16.88038028009422    9.77011430243601
C         4.18257735073759    9.55220199029622   10.73430748661673
N         0.69447391498523    9.81273137010277    8.92280922680654
C         2.97725668494718   15.75172234012316    9.23899410956369
C         3.37852581415176   14.16422043371688    5.02652052542968
C         7.92578373700906   14.10817057435427   10.34450165969282
C         3.53103636731121    9.01787767463477    9.58967148005513
C         3.30710309195387   14.62534306178388    6.33914670733952
C         1.61103219605304   18.23127776580573    9.49213072476346
C         6.21983799223738   14.86689897198933    8.82992774100051
C         3.70273486750423   13.85920754392425    7.43099488571148
C         3.87895851678568   12.89727459675731    4.75754552915369
C         3.42928894190867    9.17591190860605   11.87255043201714
C         2.78314530985350   13.20164621868791    9.86254878565656
C         4.32158290493962   12.11706392109794    5.81765831632122
C         6.94874854594718   13.42631531180862   11.05613664059878
C         2.93356238738368   18.10542203456309    9.89439455125099
C         2.40276816592581    8.24508504978293   10.02694010799375
C         0.95416364027316   17.11501971236762    8.98491918990050
C         7.55453496245262   14.83006843616926    9.21476862998563
C         4.10416521478865    8.95394555691475    8.20513118679488
C         1.79743214645367   12.50925335064984   11.98200056729173
C         5.20878332624452   14.21358569436703    9.53129894004692
C         0.66313875856736   11.82427520462704   11.66842868487664
B         3.66486820328580   14.29236961230631    9.00683369504908
C         5.62518451910857   13.48410993107060   10.63431885695730
C         5.59046438209979   10.06815440452328   10.76111859717097
C         2.15958750474620   13.70289607165907   11.17744300361552
C         3.84481667872931    9.38976790159327   13.29867414095143
C        -0.00435116567166   10.58218740197874    7.90606072834797
C         1.54380299593189    7.46445475316436   12.33962819188723
C         0.46397934766385   10.43652920249447   11.95576809020215
C        -0.55802480028420   11.89704174048436    8.47660736646281
C        -0.56493707176744    7.03546860394933    9.45910421705906
C         0.98239255031674   10.93311238164775    6.77706203126869
C        -1.18383609486350    9.79212124107840    7.32230566557937
C         1.40204045626944    7.21793953354115    7.19674158445653
C        -0.95640159730884    9.91497442275297   11.86422746995623
H         4.18411296021131    7.91218745628748    7.89424634532921
H         5.09821071132258    9.39134784035681    8.17545839712785
H         3.47504466895815    9.47369485582692    7.48312312766546
H         2.55999908917562   12.07915511711014   12.62762711399041
H        -0.11673943044273   12.34904131728790   11.11452083679586
H         5.78583801482734   10.76127582606527    9.94678604516935
H         6.27302375322725    9.22167396846933   10.65052382860549
H         5.81909704510042   10.55210479067229   11.70627332662532
H         2.85471835821701   14.38321526517269   11.66766459694555
H         1.26889020298366   14.27407350586550   10.89715336670185
H         4.38602014991118   10.32736797918675   13.41897316875707
H         4.50724486708897    8.58104443982515   13.61574511616155
H         2.98725035893097    9.39490155668680   13.97094831263187
H         0.66335589860825    7.08952909658555   11.82740471186554
H         1.24163871504018    7.94729823641531   13.26737411790910
H         2.16468327876626    6.60666233559688   12.61029513706126
H         0.95446698594475   10.12507221362172   12.88336658698954
H         0.25313314327330   12.51410883151850    8.86161965536644
H        -1.28815759123318   11.69509051251276    9.25950827494348
H        -1.05512966655167   12.45993507787369    7.68961618054872
H        -1.27283706399107    6.89208332652375    8.64988764476930
H        -1.10168203403534    7.49132851604179   10.28252556154331
H        -0.23611495568738    6.05006181822489    9.77132844511521
H         1.30849217732811   10.02922567359924    6.26936432572237
H         1.84801865615097   11.43989929978638    7.20485159587872
H         0.51493993275027   11.59270614090368    6.05005949305640
H        -0.83085908603972    8.91172297474372    6.79602182035856
H        -1.73875998726517   10.41331347294736    6.62371964824433
H        -1.85198701632584    9.47769426315542    8.11984226974105
H         2.00927909361667    7.83041148091554    6.54072797417919
H         0.51235799092740    6.92918733691857    6.64617082831241
H         1.95867717375062    6.30786750834531    7.39814436127953
H        -0.99514810916743    8.85790228305642   12.11672387471718
H        -1.35897081638673   10.04684048721057   10.85939950169540
H        -1.60826083851873   10.44320006300397   12.56749589965245

