96
CSD_code = YETWUQ | q = 0 | S = 0 | Stoichiometry = C38H50Cl2N3NbP2 | MND = 6
Nb        9.99975601706223    3.51997531938125    9.50742598313154
P         8.58465384432072    5.52451791002449   10.29734595908572
C         9.95049952991304    6.38732885639320   11.11687788803447
C         9.79880445134639    7.27779051941119   12.17160682880192
H         8.80985095655314    7.48259104847233   12.55831111484726
C        10.89173457068140    7.90424863499972   12.75140153364614
C        10.72364969005363    8.87770265198406   13.87892873612687
H         9.73517745444506    8.79144964941327   14.32342985393490
H        10.84882152479961    9.89927377011069   13.51735229402144
H        11.47139808984378    8.70370542312965   14.65027419268493
C        12.15574957785834    7.61452209079525   12.24646035235819
H        13.02315563085408    8.08455401825768   12.68820174169835
C        12.32737255238104    6.72651733948980   11.20639478524892
H        13.32414948827613    6.50492056115694   10.85165968603542
C        11.23398918530387    6.07941123413029   10.61624437318536
N        11.38150625596220    5.12432820626988    9.62734843414398
C        12.27740621000076    5.34244708970664    8.62521330917097
C        12.58265665765960    6.65219989676558    8.19336755011358
H        12.15010826466658    7.48108759978146    8.73392078284701
C        13.37943307979756    6.90308051239161    7.10473293222754
H        13.56405304974355    7.92457332595828    6.80459368015641
C        13.94081500137715    5.85782887184794    6.37265032880593
C        14.77052454536880    6.12484082108561    5.15394343372746
H        14.12457497813114    6.26974427595858    4.28717247889087
H        15.43546786922700    5.29025672931896    4.94322405018351
H        15.36532052828926    7.02677116362218    5.28186371860580
C        13.69522530956205    4.56850807650299    6.80685419052647
H        14.14900837961209    3.75726763576552    6.25843978935698
C        12.87995732348651    4.28041080515495    7.90483015965291
P        12.94621432976810    2.56692898173714    8.47951848755222
N        11.59536185052444    2.10338846399973    9.19763094167180
C        11.38129255446024    0.83595841433216    9.78436576635806
C        12.05544093995962    0.40336021745225   10.92310159384743
H        12.78894392440859    1.04331297888110   11.39047656916116
C        11.74376187197566   -0.81817344241400   11.49426756566665
H        12.26688958684270   -1.13436776470271   12.38519699447417
C        10.76064448639132   -1.62191430899367   10.94495682204133
H        10.51699304514447   -2.57000287413993   11.40035572903690
C        10.07691451409477   -1.19356167894270    9.81812476453349
H         9.29628741657316   -1.80517776399031    9.39043747533423
C        10.38384404447990    0.02244726433404    9.23888115999866
H         9.84470884931836    0.36810760544840    8.36174276321372
C         7.20456480030211    5.37403986040689   11.52977259411535
H         7.00176691805498    6.37409818560341   11.93458175955173
C         7.62179552690644    4.44273509101482   12.66154100038260
H         6.84616335278553    4.40585031186578   13.42563349118874
H         8.55037223659133    4.77636126689402   13.12450263566142
H         7.77042076489628    3.43374856996323   12.27659701990429
C         5.96735019384167    4.83418150675710   10.81460302922725
H         5.18833642398583    4.61118371857013   11.54190186858118
H         6.21935158074512    3.91165636736597   10.28901022555576
H         5.56983245616864    5.55038935073334   10.09796701498651
C         7.94350700828441    6.77367534328880    9.06036569264066
H         7.15249064158213    6.24919261116471    8.50918036531096
C         9.06781291724073    7.10955982314274    8.08621012736168
H         8.68084469401715    7.67400244819830    7.23943680736599
H         9.52838652256720    6.19424101347767    7.71321121363488
H         9.82620169141941    7.71317279569822    8.58235093860373
C         7.38944778342521    8.04280114747186    9.70029279975315
H         6.50034353970906    7.84569685334755   10.29356510460113
H         7.11937251348196    8.75330788954717    8.92039570606752
H         8.14187017707618    8.50792095125975   10.33520566246469
C        14.44192636792004    2.49750532798333    9.59824079975741
H        14.46847282969473    1.47988203443486   10.00735036799317
C        14.19911239384686    3.49624656893724   10.72668349398085
H        13.17629449333047    3.42498070450651   11.10519009407962
H        14.35485874906422    4.51039533899590   10.36162008220144
H        14.88433803149957    3.32184959383791   11.55512278607102
C        15.75133079627109    2.78410884517123    8.87529863315085
H        15.71177525668350    3.75413658693274    8.38255436080856
H        15.97234816874802    2.02187325504246    8.13145123109605
H        16.56861976708208    2.80061593444509    9.59501286632150
C        13.31375434517331    1.44231714379413    7.03406368060005
H        14.22222676764417    1.77407109015189    6.52459129539210
C        13.53904108201460    0.01384124073967    7.52198880811427
H        12.66284003577058   -0.36253382407923    8.04492346208062
H        14.39564916778147   -0.04824175109573    8.19128331395121
H        13.72995720015059   -0.63692723500797    6.66955853381236
C        12.12198242052602    1.53508413507395    6.08836107493798
H        11.20031009043059    1.30868264223774    6.62407462079207
H        12.22865058894208    0.83071021949419    5.26520382411734
H        12.02373086129701    2.53903823252875    5.67823198589286
N         9.71843430249772    3.71292516892626    7.75594809936920
C         9.47918758562091    3.71461996013560    6.44799576054487
C        10.18910466289260    4.53808550494447    5.54933019793256
H        10.93835133374316    5.21144215805793    5.94341576884721
C         9.93439347416622    4.47776632228549    4.19561017409469
H        10.48978223694759    5.11431388665541    3.52023692701083
C         8.97559932549491    3.61096055373906    3.69281449999683
H         8.78441677732172    3.56943390790534    2.63079410408120
C         8.25974476520254    2.80066645252324    4.56414656080668
H         7.50752543827238    2.12877009528377    4.17502231179443
C         8.49921090947897    2.84773862449711    5.91878780383924
H         7.94974125989529    2.23101387800883    6.61827443732220
Cl       10.53931228830960    3.20585364496202   11.80504792300259
Cl        8.08872705265168    2.17499852193027    9.84571826511855

