50
CSD_code = YETYEB | q = 0 | S = 0 | Stoichiometry = C17H27N2OReS2 | MND = 5
Re        5.64385433945177   10.27807572373947    0.24724001828480
S         7.37825363565506    8.74981973753867   -0.16507167064309
S         7.14304756013236   12.07812664257918    1.05402648654734
O         5.02372641377854   11.02966089736610   -1.11665818212869
N         5.07249509384921   10.31080379737087    2.11069991917232
N         4.63832852021478    8.60163196590145    0.38677439634262
C         8.86908123163894   11.69207662179486    0.58725146535533
C         9.00532765533392   11.93759796718981   -0.90852385411747
C        10.36376897643914   11.46742895782175   -1.41174649722234
C         6.45900050698557    7.13936623703928   -0.27318766191126
C         4.97553880245703    7.48679566151134   -0.47378133938719
C         6.66367806786865    6.40282259896499    1.04607300266147
C         7.01823300959692    6.35217647119532   -1.44797398179442
C         4.02750119983534    9.47804363233237    2.44686942161432
C         3.80671765071431    8.46659045538345    1.46544318130760
C         2.85079280101398    7.48342146257027    1.69710416035711
C         2.10203461742132    7.51359479287365    2.86132146844104
C         2.29283385459718    8.51488163618605    3.79859644679239
C         3.24757792215368    9.49864392024389    3.59746288495536
C         6.99021808016691   11.64510575280495    2.87117107704879
C         5.49507016844871   11.32734966382820    3.05037326591789
C         7.39294326347972   12.86971890679348    3.68023592217342
C         7.84017655815902   10.43541669573297    3.22972947505254
H         9.06892506173246   10.64570210474448    0.81050042336057
H         9.52467855807731   12.34447111180596    1.16412716518224
H         8.87059012045605   12.99978559135131   -1.12159508591591
H         8.21408358714721   11.38494128651416   -1.42369315024815
H        10.45339901747643   11.65565710304651   -2.47784846414569
H        11.16857266853275   11.99142006429818   -0.89989658360134
H        10.47735499291452   10.40000510674899   -1.24005370291626
H         4.80682917250075    7.78872458631675   -1.51584428136969
H         4.36332013076128    6.60946844838662   -0.25163806402504
H         7.72545696680651    6.28090475417143    1.25069458697638
H         6.21264617558976    6.96397768688115    1.86380587713828
H         6.20061335758868    5.41805800170155    1.00457338911369
H         8.07194006620722    6.13584193710660   -1.28614414085125
H         6.48015079022440    5.41247579536200   -1.56164593425881
H         6.92181315660547    6.92611431336899   -2.36677471259239
H         2.66481099183592    6.71485519298211    0.96239897400617
H         1.35258855857251    6.75492664160018    3.03007889179445
H         1.69195838867072    8.53564970810799    4.69545636103779
H         3.36964130823314   10.27487182497757    4.33841120234495
H         5.34325721781109   10.98451416969636    4.08099967426875
H         4.90776300491847   12.24828939719903    2.90937160032385
H         8.44221245979508   13.10619603746882    3.51905526025756
H         6.79685568307804   13.73253257950974    3.39253174834545
H         7.24335252829068   12.68244515567489    4.74201569721784
H         8.90121342857701   10.66424077717510    3.16566772974598
H         7.62026142511246   10.13383062836863    4.25305293254924
H         7.61861125309592    9.59314979666879    2.57276320144503

