114
CSD_code = YEVBUW | q = 0 | S = 0 | Stoichiometry = C50H54IrNO6P2 | MND = 7
Ir       17.52328026621844   19.54396128652321   -4.57953926910316
P        16.92336593741820   20.39947661265054   -6.54242348716464
P        17.58789720253194   17.51262489243819   -5.50522822594158
O        17.50481035586213   21.84464743664205   -7.06395133285011
O        15.40501063766909   20.70769495486053   -7.03830827932285
O        17.32627044191737   19.40027832097481   -7.75198680218930
O        18.63316189979087   17.04935277336242   -6.66082168284998
O        17.77606649806086   16.33202094071557   -4.38948336102895
O        16.33679303907162   16.96027472922254   -6.38302947050128
N        17.18634037774009   23.60774061947623   -2.50448921111976
C        17.64001898072801   21.29952357283355   -3.24294819338424
C        16.53407127384820   20.58411391271499   -2.62205604334825
C        17.01238325405039   19.34305358066941   -2.22634057101798
C        18.43327162116709   19.28211091180696   -2.54452511495107
C        18.84095463263816   20.55730838037236   -3.01077790429899
C        17.55753692828593   22.75031566705218   -3.62636775167393
C        15.18070175965057   21.15659923010926   -2.35216744683420
C        16.28141638358954   18.28179518296110   -1.46619526072287
C        19.34382035971545   18.22525337281306   -1.99052390531225
C        20.25816580518046   21.02765429935179   -3.15184524646747
C        18.14167716515411   23.53524981466618   -1.41119230635734
C        17.49681086063893   23.89676416738783   -0.07709855806486
C        16.95024754988140   24.97047031780373   -2.94790585986845
C        15.56979945135548   25.13877493878395   -3.57503560877001
C        18.76422851805876   22.30770052220222   -6.81002204068731
C        18.94897532593830   23.68620363355970   -6.79025611081136
C        20.21085569493159   24.20569857678095   -6.57039547449282
C        21.28933870916594   23.35865978072555   -6.36897568286285
C        21.09997555815934   21.98803261849259   -6.39055681813364
C        19.84027865839552   21.45651579349712   -6.60992940605040
C        14.65525274272427   21.77613866234381   -6.60500857158659
C        13.82304638924257   21.63592602225806   -5.50433615098150
C        13.02143190025035   22.69334703209466   -5.11264211634248
C        13.04978894243020   23.88852211036878   -5.81180861754607
C        13.88551489812851   24.02482683277644   -6.90827566775791
C        14.69021496560008   22.97270074225563   -7.30860462402747
C        17.24832666592994   19.78036057383941   -9.08275995326961
C        16.04347730444461   19.71520915400950   -9.76716769078183
C        15.99876323295369   20.06075039830480  -11.10675208179106
C        17.14691737099118   20.47064638789695  -11.76341627248148
C        18.34612297245949   20.53838404161295  -11.07416540620093
C        18.40118557992071   20.19832905474259   -9.73401086689239
C        19.88158609882452   17.58800326553726   -6.78008753139761
C        20.39616158730487   17.77393457028623   -8.05773469075584
C        21.66860262351551   18.29265866863628   -8.21521836924650
C        22.43144429362381   18.62485927386188   -7.10735715621829
C        21.91704063727888   18.43378669205023   -5.83625376416756
C        20.64309024626660   17.91886333547265   -5.66744432417137
C        18.01800478694839   14.98986004944642   -4.56581302360228
C        17.81563630780771   14.32299570055399   -5.76503204688535
C        18.07923418954433   12.96641887678170   -5.84445793669185
C        18.53767404953096   12.26939878237921   -4.74051596839583
C        18.73366518429426   12.93726184093205   -3.54336279430977
C        18.47732610701726   14.29209749492407   -3.45312289605159
C        15.06587152942061   17.43351092390216   -6.22075070064123
C        14.24789507591757   17.50346456724395   -7.34141423167820
C        12.94585673377305   17.95182765305947   -7.21449643933010
C        12.45154543789532   18.32127092939395   -5.97482390056856
C        13.26429986163784   18.23191986520795   -4.85760610286966
C        14.57222513631865   17.79276670082165   -4.97438535416075
H        16.78736405075262   22.88071865406560   -4.39394005353034
H        18.51697654343549   23.07688128034403   -4.07097302279494
H        15.12916083051243   21.50532188569215   -1.31904600857428
H        14.98880224535469   22.00629488614354   -2.99977529262828
H        14.39605813105762   20.41379293236115   -2.49521202438441
H        16.54517854779676   18.32742106243221   -0.40700810815975
H        15.20422411249209   18.41242626949286   -1.55024848069054
H        16.54355424775521   17.28943830964520   -1.83181095111045
H        19.36562690653167   18.28770331706986   -0.90000671288057
H        18.99862088493486   17.22916109204682   -2.26156545532903
H        20.36091267617269   18.35342280013151   -2.35535011500059
H        20.70710641093043   21.15653642695833   -2.16356211104648
H        20.86739367873275   20.31644030185398   -3.70763511854168
H        20.30309690897014   21.98203119357746   -3.67104707771749
H        18.49065304786431   22.50390423617148   -1.34956958011083
H        19.02083898106403   24.17986084548865   -1.59364412205005
H        18.20551388042248   23.73323542637402    0.73141049677909
H        17.18154519750938   24.93686797730858   -0.04947462502126
H        16.62470486410907   23.26998569280322    0.08618504307304
H        17.01115384029412   25.62617602356821   -2.07727008711805
H        17.72675696788064   25.29695464944315   -3.66566955274899
H        15.38439791144844   26.19027056063808   -3.78237125526009
H        15.48176058720082   24.58699457942615   -4.50738378176616
H        14.80962466828603   24.77604006209630   -2.88860136425803
H        18.09658371623361   24.33029334890789   -6.94333682164702
H        20.35169814351924   25.27627900249006   -6.55222168599682
H        22.27302691774767   23.76804245335268   -6.19475447510302
H        21.93340177363284   21.31990222002292   -6.23686690496013
H        19.68038280582554   20.38861196509984   -6.62105353322137
H        13.81752730707012   20.69510017622553   -4.97918256847462
H        12.37519249740242   22.58402539575894   -4.25462590907769
H        12.42671642821636   24.71347383609148   -5.50125271751576
H        13.91314023165199   24.95604060005435   -7.45467217006690
H        15.34571356652771   23.06016249897087   -8.16152068560550
H        15.15711156471087   19.40361320072075   -9.23817018967648
H        15.05983264349910   20.01202392932900  -11.63823713998290
H        17.10691788110649   20.73984585662572  -12.80830782645080
H        19.24421635420287   20.86262208731829  -11.57863974874627
H        19.32834280450454   20.25333918571501   -9.18332093280386
H        19.78699239324262   17.51197234866030   -8.90837823611429
H        22.06614903778391   18.43859938532806   -9.20852906040439
H        23.42599087934978   19.02515321616934   -7.23613099488490
H        22.51297581274179   18.68091048558672   -4.96962123621049
H        20.22810390047632   17.75227994848161   -4.68580735554654
H        17.45565514962477   14.86585701395506   -6.62302472278391
H        17.92136110743185   12.45151386462755   -6.78056338588280
H        18.73944727204515   11.21112271049022   -4.81052970048318
H        19.08784805374298   12.40263141723988   -2.67410793012487
H        18.62724303707748   14.82203250320309   -2.52477258294041
H        14.64734351718957   17.19864624049731   -8.29616493764445
H        12.31272792109957   18.01088952102720   -8.08741547772590
H        11.43525573581250   18.67275057000258   -5.87959100549716
H        12.87563039123750   18.49896682586624   -3.88530190767750
H        15.21231703490120   17.69970668248478   -4.11082711895245

