83
CSD_code = YEVBIL | q = 0 | S = 0 | Stoichiometry = C22H52HfN8 | MND = 6
Hf        4.09414749190455    7.02038615671318   11.81273332998294
N         4.11869274923837    9.43653762958539    8.51144548767671
N         2.72243654921793    5.63370737910010   11.13032788841918
N         3.15217064900386    8.62923643613440   10.51287172823342
C         2.35158596077090    5.55984338537564    9.73419251251443
H         2.87899629315281    4.74340484146234    9.20273636673705
H         2.57958298222818    6.49976569004090    9.23346441415102
H         1.27028266030614    5.36013683274849    9.61828430241084
C         1.96258243825041   10.37628408050813   11.69628340509106
H         1.77725731047305    9.67365525847506   12.50508060848395
H         1.14905748006770   11.09792387423594   11.64474696360884
H         2.89029168012840   10.90543206277544   11.90248467537112
C         2.07672158295091    9.59427048889911   10.38576204098909
H         2.28505027988275   10.29922834062055    9.56722236938734
C         2.44863936451955    4.35215119587806   11.74896460207797
H         1.36409148770886    4.13575378460713   11.75977826557111
H         2.81158467937048    4.34364622524220   12.77749430532595
H         2.92678244972893    3.51603545968705   11.20596691242239
C         4.14729199063426    8.58846998891225    9.65168611994400
C         3.35849182725856    9.00339303015906    7.36568295339288
H         2.54862967600780    8.35360006989371    7.68754439283603
H         3.97893799859881    8.45694950980037    6.63780906747462
H         2.93250972532600    9.87563126302951    6.86051489599727
C         0.75738413820810    8.86455817312599   10.10844399196554
H         0.75763563515910    8.42219495089332    9.11537959577574
H        -0.08101843016023    9.55462091648327   10.17727835964951
H         0.63444490149438    8.06796475100161   10.83883823639524
C         5.23159479551440   10.29327943086867    8.18566601194812
H         5.85638368178817   10.43538909465165    9.06293688740194
H         4.83855068267802   11.26950442543223    7.87828045742886
H         5.84681005773703    9.91041947138301    7.35793967453143
N         5.12086693339267    7.74640067897045    9.96696369261510
C         7.41395530395642    7.00887885852751    9.84882541352473
H         7.88535052841993    7.92184055459086   10.20611599716574
H         8.13367366231725    6.46323591441809    9.24245901553517
H         7.12037403380637    6.40685615258820   10.70821453898069
C         6.15803839805920    7.33724045081781    9.03761221165412
H         6.40079414584555    8.12788691984848    8.31558751507904
C         5.69743924864823    6.10558124789425    8.24453690315105
H         5.44011879439939    5.30592819694370    8.93509005304365
H         6.48717799197818    5.76383524095304    7.57810808885606
H         4.81729707177769    6.34225132937216    7.65062968550382
N         4.06958579510321    9.43653582207670   15.11402308504310
N         5.46585870684467    5.63370304444736   12.49513597814530
N         5.03612740484077    8.62923970032902   13.11259820574755
C         5.83671666764858    5.55984066033540   13.89126918738390
H         5.30932019737176    4.74339296295736   14.42272478123131
H         5.60870803105887    6.49975796748480   14.39200132435983
H         6.91802310765373    5.36014874429424   14.00717382128971
C         6.22571266757810   10.37627289484888   11.92917680021611
H         6.41104069236062    9.67363553355844   11.12038747467828
H         7.03923513711568   11.09791590529704   11.98070708827924
H         5.29800094525532   10.90541488633241   11.72296996060675
C         6.11157673203152    9.59427114651851   13.23970562501824
H         5.90324805219102   10.29923671547702   14.05823965427462
C         5.73966210446263    4.35214849327684   11.87649810176698
H         6.82421156790717    4.13575894892491   11.86567623693858
H         5.37670848650072    4.34363856249581   10.84797141912425
H         5.26152999184263    3.51602990540220   12.41950082285785
C         4.04099692373558    8.58848259896168   13.97377011301694
C         4.82982649838125    9.00341787007251   16.25976833589358
H         5.63963795415262    8.35355919179665   15.93789305571119
H         4.20936966799508    8.45703262064918   16.98770087270055
H         5.25587747447403    9.87566287882082   16.76489798491625
C         7.43091437669449    8.86455952762307   13.51702727340952
H         7.43066110229000    8.42219891291380   14.51009266533096
H         8.26931713156518    9.55462164735991   13.44819167195379
H         7.55385356837835    8.06796487489706   12.78663445232867
C         2.95669074281733   10.29327147896771   15.43981530365836
H         2.33189551588515   10.43539334816149   14.56254899724949
H         3.34973420767891   11.26949396159957   15.74721275612696
H         2.34147974382362    9.91040416809231   16.26754451700912
N         3.06742226706627    7.74641533307391   13.65849145029838
C         0.77433824174161    7.00887931778989   13.77664715200370
H         0.30293283995314    7.92183815165942   13.41936212093930
H         0.05462855705811    6.46323043219808   14.38301885580231
H         1.06791744003030    6.40686004530717   12.91725468134523
C         2.03025766409735    7.33725200802114   14.58785063627642
H         1.78749801195109    8.12790234326107   15.30986860621611
C         2.49086539155099    6.10560614401157   15.38094264903312
H         2.74820629599065    5.30595241068042   14.69039871177949
H         1.70112723884341    5.76385162618035   16.04736819716743
H         3.37099797432909    6.34229747120354   15.97485543456844

