107
CSD_code = YEVBUX | q = 0 | S = 0 | Stoichiometry = C30H68HfN8 | MND = 6
Hf        3.45785250972300    2.70786083376218   14.34458776985362
N         4.63116160512585    3.39623879240048   12.61175360322807
C         6.00375022590165    3.28659708596741   12.14151656903685
H         6.03942476792973    3.26839268977759   11.04366129593731
C         6.87672192607374    4.44856273131116   12.63587669135129
H         6.48008267088798    5.41208407093602   12.32418215992053
H         7.88216566196734    4.34967985423528   12.23132644952035
H         6.93057388083824    4.43015083768061   13.72018257675848
C         6.58763850803089    1.97461494697722   12.67443365651329
H         6.06447783521193    1.12514713480120   12.24202524884506
H         6.45090846892062    1.95588879404787   13.75628130724433
H         7.64624156955091    1.89666737292982   12.43285725824332
C         3.60278066320683    3.45025437554050   11.76699961032718
N         3.74119914278819    3.81078212760271   10.40998730475257
C         4.46019037693536    5.00081361169252   10.01285666561253
H         4.91863287438752    5.44164413480638   10.89582008068480
H         5.25634467017105    4.75842963703605    9.29651130186731
C         3.52748227807101    6.04183038142714    9.38495773064225
H         3.05629194852819    5.65283745251361    8.48552139679239
H         4.09450467191567    6.93104920523081    9.11977660071106
H         2.74955608161342    6.32116610305186   10.09060714238271
C         3.47437669719799    2.83688690196152    9.37727332676449
H         3.13922953512273    3.36355845468587    8.47751838683273
H         2.66323600615031    2.19420421620292    9.71468188997569
C         4.67406605858556    1.94826560829075    9.02483892408947
H         5.51338342086034    2.54051080490225    8.66648666506778
H         4.39117495907133    1.24932620084748    8.24087304681568
H         4.99307431267383    1.38249051302551    9.89721307150263
N         2.42269154894659    3.17900336989496   12.29280847750808
C         1.20415536092295    3.58257976349047   11.60208235263249
H         1.46377350251217    4.22989145593477   10.74916827708227
C         0.35598023553027    2.41545523592087   11.07250433173393
H         0.92668921295860    1.73884611625864   10.44570336094183
H        -0.46795004932942    2.81267659813102   10.48205308178935
H        -0.05732939860067    1.84574388241213   11.90048627948620
C         0.31708789971257    4.36606110690406   12.57503796005538
H        -0.60292000183780    4.67858743056112   12.08308063249280
H         0.82708343168962    5.24332678202485   12.95884451323657
H         0.07626545268641    3.72287936148803   13.41683150586915
N         2.94976156657663    4.91392515611326   14.98358961057355
C         3.11193228948109    6.34050235212911   14.73103860518152
H         2.19042636271824    6.87244762695179   15.01649631286267
C         3.37293468158299    6.56253249320730   13.23782319629459
H         4.24169812574504    5.97797953975525   12.94906847005578
H         3.56122683555736    7.61648935413652   13.03916322774976
H         2.53215427720335    6.23838505513193   12.63308263085671
C         4.28696951018427    6.97840666502783   15.48907895679593
H         4.26136562766232    6.75437916071835   16.55006555411912
H         4.24876809430611    8.05949060485793   15.36669074027268
H         5.23157924024369    6.61992775773077   15.08836451468106
C         1.87746246757616    4.47313925863405   15.61447354732513
N         1.02989811916496    5.34544649631043   16.32914814674271
C         1.50528025402483    5.99428166868668   17.52899082774469
H         0.97357756457232    6.94425785064587   17.64707439750728
H         2.56439932528938    6.21377078116516   17.40516973198801
C         1.33281960813692    5.15904671512099   18.80387773902880
H         0.28538341596128    4.92744170450296   18.98468176822137
H         1.71131881323379    5.71569924342612   19.65828173161644
H         1.88719105620907    4.22693819196940   18.72226040125601
C        -0.39589843543795    5.37225127552912   16.09183408665531
H        -0.95328598345761    5.20634107452465   17.02337942061005
H        -0.64535828610470    4.57286161003604   15.39695464029437
C        -0.84342261013895    6.70204951174230   15.47556380620698
H        -0.62936973011866    7.53439846051730   16.14162436542959
H        -1.91426384369946    6.67814038181332   15.28821207440959
H        -0.32792090297380    6.87099240943183   14.53380769583875
N         1.63628987766868    3.16866902785234   15.49262592436245
C         0.75389830176553    2.46787364087542   16.41325810013081
H         0.34513214176654    3.16008729600325   17.16200350169816
C        -0.41898461851057    1.79005980707334   15.69097778314576
H        -1.00673960737150    2.50363756412669   15.11831880025701
H        -1.07547874634841    1.31974276638035   16.42041310074930
H        -0.04274845294514    1.02829511194288   15.01497444117462
C         1.57297300679631    1.39215722282367   17.13329125093025
H         2.05760598352740    0.76948166933233   16.38042634753133
H         0.93315756938002    0.77886745093906   17.76553617870508
H         2.34066144427028    1.85235478913576   17.75063398327214
N         4.91775863722433    2.54134841722397   15.80845113174083
C         5.68694304231432    3.72063815798462   16.16293468845155
H         5.47953362706301    4.47286322944307   15.39625333909490
H         6.77449964439558    3.50881610789964   16.15165416195332
C         5.35629553624659    4.33363017793821   17.53827983688618
H         4.28003430558108    4.46130772053304   17.62957761452214
H         5.84420042875491    5.30086059321786   17.63843237973380
H         5.70501988925905    3.69920769944091   18.34952172529991
C         5.04819612667352    1.48472017408424   16.79737687201944
H         4.38117270948337    0.67311647666203   16.50480061685803
H         4.73153069063088    1.81903550550948   17.80222046846403
C         6.47366400532537    0.91090380130319   16.94223291545704
H         6.87572501589163    0.63577136540438   15.97007554627412
H         6.44939341735639    0.02457090926655   17.57200941000794
H         7.14448728124680    1.63390568567300   17.39900670770101
N         3.26570337961008    0.66766414181387   14.02929235623613
C         4.33167984598537   -0.31938550895602   14.04355252710632
H         5.20480944843590    0.14241840812043   14.50537391692321
H         4.62627422317349   -0.62381271390041   13.02227610694977
C         4.00058848033984   -1.60982259199626   14.82221719378470
H         3.62032395181475   -1.37015375204884   15.81247496732471
H         4.89934337369198   -2.21286863338536   14.93060352555220
H         3.25357342889901   -2.20313953702309   14.30122901970084
C         2.07750157606254    0.17904248960463   13.35276764270324
H         1.37101937552089    1.01400213653866   13.31729677897837
H         1.60504770416755   -0.64714835905574   13.92035694255092
C         2.29939897235801   -0.32522453131424   11.91339310657652
H         2.87328353510716    0.41158233453879   11.35608213574547
H         1.34046728094358   -0.48025233721510   11.42380036211728
H         2.83658620081409   -1.27063228985549   11.90289188725496

