49
CSD_code = YEVDUZ | q = 0 | S = 0 | Stoichiometry = C18H26I2N2Pt | MND = 4
Pt        6.82125496090251    2.12110581575796    4.33198421165922
I         7.68788654082409    4.59172283483599    4.27117413986927
N         8.12626446701854    1.64433745994774    2.77066279068478
H         7.61790058387839    1.13998945141192    2.03668489358744
H         8.47884978167614    2.53094805169327    2.39375555580299
C         9.20399693279263    0.83753607657238    3.26581150408454
C         9.30020089881084   -0.50416326224317    2.91935714617255
H         8.56995555249148   -0.94636120821318    2.25666613813851
C        10.31748967186885   -1.28137583418236    3.43727082404897
H        10.36700465445290   -2.32304484744822    3.16099531585417
C        11.26376722840535   -0.74200388313112    4.30094216303419
C        11.16349753044710    0.60424261850507    4.62900646493563
H        11.88846790168764    1.04751849306013    5.29592518537415
C        10.14904354181783    1.39320940768186    4.12012952982629
H        10.09325617111556    2.43872133630128    4.38713733234500
C        12.37639000493611   -1.58818930245429    4.86615297543520
H        12.98374232912519   -0.95709890836453    5.52445957303933
C        11.81358961971032   -2.74264074509297    5.69770931561460
H        11.23603076946149   -3.42287696794602    5.07712066865710
H        11.16501796332599   -2.36248419209710    6.48371219279317
H        12.62425949887621   -3.30295261317756    6.15798001051362
C        13.27744269092785   -2.11342583070533    3.74612639651881
H        14.11035637338359   -2.67240087365219    4.16641095356328
H        13.67551299004792   -1.28776618817701    3.15994659676301
H        12.72430148363830   -2.77170094530170    3.08088393899092
I         5.95459546077286   -0.34942430234343    4.39281172444110
N         5.51616108744900    2.59780233035394    5.89327263015146
H         6.02446314102954    3.10223618941620    6.62723402801701
H         5.16363025276610    1.71117921328220    6.27020337114391
C         4.43838403261410    3.40452204737127    5.39806439209925
C         4.34223792406993    4.74629069404412    5.74428323785966
H         5.07250078829092    5.18857066916975    6.40690504661740
C         3.32496195782142    5.52345546242537    5.22627153916117
H         3.27549771328374    6.56517866349277    5.50236427996504
C         2.37862422124564    4.98396146542563    4.36273969522283
C         2.47869907146433    3.63759940832843    4.03509714728253
H         1.75358773201577    3.19420454932793    3.36840649793362
C         3.49316091820017    2.84868575345900    4.54404524964650
H         3.54879616264072    1.80308600131295    4.27734332052330
C         1.26614107986495    5.83012894028842    3.79723184399934
H         0.65872275754483    5.19892953118566    3.13909176883692
C         1.82904244522439    6.98428106929646    2.96530253749139
H         2.40664317289752    7.66467830225696    3.58566750606769
H         2.47759293157958    6.60384393465958    2.17940777614708
H         1.01841770495549    7.54451494039872    2.50484966613092
C         0.36518513574156    6.35566055287802    4.91719613627270
H        -0.46768259040617    6.91463989833057    4.49685646254844
H        -0.03295042486295    5.53013424621159    5.50353508623169
H         0.91840718217333    7.01399449584530    5.58231323890073

