54
CSD_code = YEVJEO | q = 0 | S = 0 | Stoichiometry = C19H25O6PSi2W | MND = 6
W         3.06218751852727    7.45532342449231    2.42930168034423
P         3.50781561841376    5.44271017839480    3.75662459628334
Si        1.94263006645163    2.82122166156615    4.21513444373447
Si        4.76886466681696    3.00857466103891    2.38233012437034
O         0.11243135776848    6.47087240529557    2.00661212978943
O         6.04546767329844    8.41342210786255    2.70904151481262
O         3.64137680265446    5.88499827038216   -0.22163462609333
O         2.44982576253134    9.95734241283016    0.66190023320723
O         1.98414639693633    9.15149348173164    4.83903963888027
O         3.24991774625007    5.40538986150292    5.36753721974660
C         1.18262087253572    6.82959176331529    2.18740565990747
C         4.96056790685686    8.06480314130483    2.63942156912200
C         3.50763592644732    6.44118896874211    0.77016690944806
C         2.68051214294602    9.04503232039736    1.31099645250486
C         2.44191811900960    8.50844495648713    4.01519044648153
C         4.65696797052141    5.21842025213979    5.11455633928609
H         4.98949722914208    4.20283971370003    5.31281826731274
C         5.58200173687046    6.29926282941727    5.48339965403576
C         5.11079074991893    7.57106639034944    5.79152768569663
H         4.04543762092373    7.73604524310517    5.84967659590655
C         5.99611445148882    8.59824736186923    6.06171811375297
H         5.61802102814071    9.58101453109904    6.30102205592119
C         7.36040510774923    8.36844763218649    6.01995955171565
H         8.05195500102087    9.17251922935739    6.22073429761445
C         7.83685053875893    7.10079337124957    5.72640754077917
H         8.90040045884135    6.91577053495886    5.70128574431059
C         6.95583733653561    6.06959630712528    5.46232503508670
H         7.32884334328519    5.08070056269947    5.23407556360089
C         3.15276878823524    3.79389651876438    3.07688275162544
H         2.56160575860133    4.03370492540159    2.18538803878917
C         2.67673464732657    2.30680051242795    5.89785738232780
H         3.60196506054370    1.74932490475292    5.79609018335706
H         1.97210068705516    1.67056253162520    6.42527946319715
H         2.86908613641655    3.16964729720011    6.52631731095007
C         1.43118126439656    1.25240329339986    3.26129504834893
H         2.26612849507461    0.57456532063797    3.12113486156582
H         1.03022638024499    1.48985168676038    2.28186553763475
H         0.66305641419257    0.71601120502588    3.80677513906668
C         0.43856697056842    3.96601081427882    4.45542552970464
H        -0.10074319306382    4.11757271380532    3.52421836034127
H         0.76061234417793    4.94158570141588    4.81267843282342
H        -0.26579839535403    3.56659703051139    5.17877008679416
C         4.30490672418633    2.15127708382022    0.74548658543778
H         3.94451541771949    2.86561882796763    0.01155413645304
H         3.52828324370926    1.40747763278461    0.88941687798656
H         5.16488943501332    1.64866254105022    0.31575823769059
C         6.06066200661848    4.36910084014783    2.03488883819197
H         6.27833353546750    4.96289025963093    2.91864475800585
H         5.71634516694618    5.05236511467819    1.26442475210893
H         6.99718014431793    3.94177237400009    1.68924720610534
C         5.52492211786621    1.72822677318008    3.57875096937405
H         5.84110712933781    2.16498225546832    4.52068510959670
H         6.40051950652450    1.27549925669485    3.12435107742629
H         4.82510306329572    0.92935900998050    3.79993888754489

