61
CSD_code = YEVJIS | q = 0 | S = 0 | Stoichiometry = C15H34FeN3O6PSi | MND = 5
Fe        5.11205334441604    1.79556182185327   17.00705363091861
Si        4.36822050994557    1.96687916890635   14.88018413228874
P         6.29838295238495    1.71913733059297   18.80743604132929
O         6.90811790093999   -0.26093829724417   15.96049879510112
O         2.55071219147133    0.94186292671387   18.18707766238302
O         5.56323885132964    4.68884686503878   17.01565102126960
O         7.76144258625790    2.39311790533970   18.76226970579565
O         5.06931980535565    3.02453163240644   13.81531326981424
O         3.85637883261929    0.76155634916075   13.87255402154383
N         2.67127433450352    2.92404913030399   14.58010968021102
H         2.67224777796638    3.04369307963599   13.56895867276606
N         5.85987063574049    2.54296335629902   20.23708510865784
N         6.67429347868050    0.19792235124653   19.42847357435043
C         6.18472982852345    0.54945097055092   16.38212211898853
C         3.57184370979787    1.26553918894435   17.73534303526337
C         5.37420948638734    3.53971161826976   17.01929518649941
C         2.67993981597215    4.23406209926117   15.20729702122404
H         1.78167546975177    4.80444759481556   14.96226826320301
H         3.55928779527612    4.78016967918765   14.87918369786746
H         2.74142264099511    4.09999491227549   16.28606141252838
C         1.50491945030953    2.14780741213902   14.96446948337918
H         0.57680816756954    2.66725034271313   14.71737980922151
H         1.53999711862919    1.96842726536159   16.03639385841634
H         1.53470284268848    1.19108148235802   14.45213309219868
C         6.43334817848478    3.33370902670809   13.72826180058816
H         6.80829031355151    3.58895251408440   14.72752865942207
H         6.51226819178466    4.21523860535465   13.08281286750459
C         7.25026973839972    2.18494687161649   13.15691560718299
H         8.28659658683866    2.48796737693123   13.03417489341632
H         6.84774415502255    1.88488728174128   12.19291869991724
H         7.20591723875947    1.33340919520142   13.83039292441024
C         4.12282592484510   -0.61442891721136   13.92402369238857
H         5.19409391767468   -0.78005004520711   14.07463266238537
H         3.84410950228528   -1.01985856700333   12.94473825894559
C         3.34144318855669   -1.31211586878353   15.02767696579787
H         3.58687534849683   -2.37017400042786   15.04029069722318
H         2.27131976114036   -1.19915493238854   14.87170205822304
H         3.60454687222673   -0.87009770970135   15.98588606968509
C         8.58209260267966    2.49268787291352   17.61079885984794
H         8.01070773460899    2.19219706811378   16.72117597166267
H         9.42963366244311    1.80955089343588   17.73510012059845
C         9.07077491320888    3.92530134349784   17.45632623657011
H         9.73362958962909    3.99865666511487   16.59832528206433
H         9.60785754384027    4.23779973262388   18.34881277280567
H         8.22515571755758    4.59218464296411   17.30717860087368
C         5.90502645437086    3.99066250547194   20.25253304626000
H         6.80240888636695    4.33128810388442   19.74261752763488
H         5.94125469129523    4.32822606260955   21.29149190041581
H         5.02745666159833    4.44064631802005   19.77289465674021
C         4.63176536440050    2.04825874678352   20.82540933338198
H         4.57162945063089    0.96853109183354   20.69347084565049
H         3.74149277495483    2.50074892609006   20.37111407926356
H         4.62735278810008    2.27546791961881   21.89459301772986
C         5.91706192786883   -1.00168835356593   19.17445147599669
H         5.20944450852980   -0.81502103121729   18.36651158266293
H         5.36327769462983   -1.32631098632313   20.06452398239101
H         6.58708448337370   -1.81413132506400   18.87543409849755
C         7.53687165589902    0.11484367021215   20.58853239781584
H         8.01075700593100    1.08167755656708   20.74393353636180
H         8.30784498264250   -0.64425548856648   20.42560400359801
H         6.97498045985959   -0.15167895205270   21.49089851887085

