91
CSD_code = YEVMES | q = 1 | S = 0 | Stoichiometry = C45H39ClP3PdS2(1+) | MND = 4
Pd       11.02650750268908    4.82275866421704   10.25518720839522
S         8.69876473464072    4.74427922152698   10.51543718283940
S        11.22679077588664    5.41133925151992    7.25899503645510
Cl       12.48416144996438    4.41870405711488    4.69811313849888
P        10.63804692893843    7.01442629477237    9.80252063803777
P        13.32739938843095    4.73775937252718   10.35775075095231
P        11.13142568656826    2.59149388064774   10.63525017304670
C         9.00100728487622    7.03273228575034    9.04026062045763
C         8.15226010764434    5.98493091379290    9.41260526083230
C         6.84973347518879    5.96107420088930    8.92290072752420
H         6.18968812276012    5.15970749149715    9.21763218002682
C         6.42331166227938    6.95454458735681    8.06222613497790
H         5.41529445670955    6.92374058995852    7.67770284560092
C         7.27488437186190    7.98312878662630    7.68016444265295
H         6.93116582152595    8.74707608917853    7.00059122104358
C         8.56605586907702    8.02763227925321    8.17341253817624
H         9.24206018258341    8.82390949887867    7.89204849727996
C        11.72037927783404    7.75547194501980    8.55362720862628
C        12.03469848914590    6.98242244943900    7.42938458527712
C        12.89338074757070    7.47209077276553    6.45918925477083
H        13.11946511823259    6.88406126503878    5.58412105949069
C        13.44478933219223    8.73268696347858    6.60889277692599
H        14.11244840816222    9.11200102430007    5.85107910542811
C        13.12412433738405    9.51440916760910    7.70766076211068
H        13.53862445444007   10.50583437287685    7.80608034240515
C        12.26724129868864    9.02816894201830    8.67813448239911
H        12.01684358124260    9.63260232955267    9.53848043069846
C        10.54847569206060    8.19770663889953   11.17214624930303
C        11.68820711044019    8.39231959290224   11.95178354518450
H        12.60155773631702    7.86767803655224   11.69896049849286
C        11.65037136054523    9.24403595133687   13.03804069205524
H        12.53708409734492    9.39329444298788   13.63605621275329
C        10.47099307126094    9.89882462421000   13.36040811984294
H        10.43892351827653   10.56163939826211   14.21141592847834
C         9.33300176321879    9.69852834484505   12.59625590217955
H         8.41429268970859   10.20419000503933   12.85189826403820
C         9.36422020498299    8.84765195424712   11.50496121472101
H         8.47397792680956    8.68712917150366   10.91339434231075
C        13.82938159103116    2.95584856206911   10.38147509174922
H        13.79954596431070    2.57409867797101    9.35480381731301
H        14.85085286431280    2.86982380083630   10.76641629607899
C        12.83063525788125    2.18803396282632   11.23803144111461
H        12.88442045628964    2.51373372835949   12.28436892434881
H        13.00944653651693    1.10979875499702   11.21062124845781
C        13.67420568245992    5.21952889318697   12.07677287676506
C        12.59964742433869    5.44478210924670   12.93749870666761
H        11.56714650553475    5.38132074815331   12.55964308740869
C        12.83217440533942    5.77371570044757   14.26092619796595
H        12.00066334322867    5.95135200772337   14.92602358639374
C        14.13270096707261    5.88284391068520   14.72776567860052
H        14.31377447185660    6.14294203124094   15.75925239804280
C        15.20267967296853    5.66421067528513   13.87335140738780
H        16.21393688901983    5.75411923182245   14.23959256008182
C        14.97886535154719    5.33129419038840   12.54981492242721
H        15.81059332326528    5.16787863346116   11.87795139465154
C        14.61103787932887    5.57033466932505    9.38337521585307
C        15.35888113293220    4.91899054891831    8.40552324000988
H        15.24942830548017    3.85579874484875    8.24723549120833
C        16.27022029836564    5.63101038827336    7.64435372941703
H        16.85176686700855    5.11908800201754    6.89261574276035
C        16.43881354348700    6.99083515597862    7.84554510658772
H        17.15039985852530    7.53976731709504    7.24890236341621
C        15.69826385031903    7.64350865797720    8.81857114870356
H        15.83395119666785    8.70073256929089    8.98616750386431
C        14.78454154547738    6.93925405920363    9.57727824044446
H        14.20456481422532    7.44600321771466   10.33657023713375
C        10.94170541642681    1.73016050975224    9.05379970838597
C        11.54117996149374    0.51177019391106    8.74493564521037
H        12.16886314054562    0.00735345478226    9.46620950985231
C        11.32834297887769   -0.06042102604544    7.50289395606254
H        11.79212198288137   -1.00559536214914    7.26381900762938
C        10.52158925394816    0.57156340365006    6.56889581757812
H        10.36153141897611    0.11700857805094    5.60336460982567
C         9.91989049897272    1.78259730211996    6.87388472844108
H         9.29079943405667    2.27518347919281    6.14828041735454
C        10.12930917170222    2.36284139220162    8.11217691347984
H         9.65544834211359    3.31131431655794    8.36415455867024
C        10.03338591102812    1.79803439315571   11.83004437635244
C         9.57183784185207    0.49545485653970   11.68057859227736
H         9.84740611951740   -0.08325522969120   10.81046105729522
C         8.74484483372196   -0.04489437165893   12.64910132085373
H         8.38087669723048   -1.05511612944201   12.53889332147840
C         8.37657386966753    0.70815882544665   13.75271930923155
H         7.72571601032158    0.28111760477663   14.50019794181845
C         8.82795595225925    2.01147282598808   13.89434622242704
H         8.52665795935392    2.59926976087283   14.74797718981002
C         9.65413989530418    2.55964840164848   12.93271850392347
H         9.99503315144394    3.58847210985884   13.01179379192583
C        12.50825662933168    4.38498176627149    6.48573790638672
H        12.30312056848289    3.36172629443323    6.79639586589090
H        13.48441492420406    4.72861884211338    6.82240249872302

