60
CSD_code = YEVNOD | q = 0 | S = 0 | Stoichiometry = C24H24N2O9Zn | MND = 6
Zn        0.87960443549854    6.96351143720869    3.68494810022003
O         0.78254548088384    7.16404982927172    1.40742473118202
H         1.20522483672706    8.02923649687632    1.48905788169866
H         1.49809681709545    6.55706335353730    1.18935947855307
O         1.30537262433540    7.01392023169831    5.73811594132151
H         1.62615527639093    7.98756873097058    5.76981363548000
H         2.08791533551559    6.49698991046698    5.95238958086678
O         1.68969749363561    8.75035220394514    3.37084061059952
O         2.12448864263714    9.40660506682620    5.45581195794029
O         4.97797350168025   16.93761583896270    3.08473779019758
H         4.77457304487506   17.16013653092508    2.16807866801325
O         0.27927351506688    5.00228196403095    3.68431225325548
O         2.33003395546333    5.59920911750823    3.25053046695614
O         1.80258693258212   -3.24661147925323    3.13204243051452
H         2.72337526316764   -3.46686235425653    2.94481720007538
O        -2.20215983559600   11.49056441049382    2.61140085119943
N        -1.04585653488783    7.68909524585202    3.87302808871794
N        -4.33624990718804   10.79829691620750    2.43440572789273
H        -4.58569836658169   11.64142076379419    1.94386793213635
H        -5.00071782168391   10.04660316527251    2.46116546478876
C         2.09142055339757    9.60153057285463    4.23010875914641
C         2.53657537401953   10.90249060708526    3.67327785748955
H         2.42494853264592   11.01042277762965    2.60513621671185
C         3.04742533815902   11.85484487083286    4.45985157176427
H         3.12850384477915   11.62373991099668    5.51547015951973
C         3.52517332572959   13.16332627260147    4.06093431182995
C         3.34006860214878   13.68003897228091    2.77720518772626
H         2.80805852615386   13.10302090983290    2.03759752130097
C         3.81443889307241   14.93051202775096    2.43978359500153
H         3.65852209059686   15.31878363804480    1.44109244973595
C         4.49246473345546   15.70221192366079    3.37808739963067
C         4.68215887005721   15.20340793378621    4.66427383020617
H         5.20616674781633   15.81223869750651    5.38390522072013
C         4.20021403934219   13.95631610820978    4.99483631858637
H         4.35072082213938   13.57746419678290    5.99509439733463
C         1.46460405953228    4.69760173542606    3.41496339073377
C         1.87544410909526    3.28920773641948    3.28352674915104
H         2.91959317825315    3.13944160493442    3.05711964975123
C         0.99790249429485    2.29239978352744    3.44447562294205
H        -0.02377036817912    2.57518031795979    3.66795580080470
C         1.25441847421761    0.87019537866763    3.35341816484624
C         2.51903904347496    0.33982099626439    3.08775639479417
H         3.35866377888347    1.00026190279865    2.94027103693157
C         2.71629030220645   -1.02279748416490    3.01164011968722
H         3.70317169022091   -1.41728601833143    2.80556540268285
C         1.65159262889638   -1.89952162951014    3.19919786846914
C         0.38392233858445   -1.38714435268493    3.46559769178869
H        -0.43275866440229   -2.07650252526733    3.60975927928360
C         0.19550640877985   -0.02527600724678    3.54044605907845
H        -0.79094111048503    0.36288466130546    3.74771219580829
C        -1.92313725433415    6.98137003547468    4.57219443164504
H        -1.55730248668695    6.04810719637943    4.97040734083295
C        -3.22505910663410    7.40760097863218    4.77873121255358
H        -3.90142767260788    6.81422618184051    5.37351858656088
C        -3.63877362047852    8.60280126488897    4.21466600753554
H        -4.64306640250574    8.96579802837530    4.38159853011184
C        -2.72469073977689    9.33363467127810    3.46204187414797
C        -1.42967132444307    8.83668093485185    3.34143746015588
H        -0.68831175583019    9.40177073910259    2.79662362850504
C        -3.04093298321680   10.63944706889159    2.80097191292022

