69
CSD_code = YEVNUL | q = 0 | S = 0 | Stoichiometry = C30H30MnN3O3S2 | MND = 6
Mn        2.12677073136674    5.93211749944724    9.54880692319546
N         1.80496962958393    7.22279160051502    8.28289311008633
C         0.14863056649051    6.62094037757849   11.58381051474837
C        -0.14730439537999    7.40407598775195   12.74714341486335
H         0.55958311541321    8.17932755149893   13.00287791114921
C        -1.26603768171673    7.18717821005162   13.47635189320663
H        -1.48250311656423    7.79539800632655   14.34350160800058
C        -2.17506551020434    6.14661714442459   13.14231329340911
C        -3.29765115907862    5.90121131586651   13.94850249074537
H        -3.46095760855008    6.53272387097697   14.81037789816784
C        -4.16721324040503    4.88191927161199   13.65953302631478
H        -5.02855576699446    4.69841596164842   14.28401980111522
C        -3.92220048857518    4.07116351462483   12.55064567958319
H        -4.59333628060995    3.25419874400979   12.32828057185175
C        -2.83497199325602    4.29692513971542   11.74325217993232
H        -2.67509317296504    3.63159783352899   10.90914797573058
C        -1.93289119304875    5.34709433808420   11.99530670146813
C        -0.78172036504281    5.62132135273518   11.17516144026745
C        -0.58690293288446    4.95788886876252    9.94045524605973
H        -1.42628622111006    4.34882851220403    9.60363525115335
O         1.24539836705237    6.84164802016704   10.97002115209890
C         0.23828294347745    4.39004549408728    7.84517762793075
H         0.13729525634202    5.18637852200953    7.09609007616827
H        -0.69369041364576    3.80774669606249    7.85040206908279
O         2.52817270280350    4.53826581372381   11.10077259491291
C         1.38381725317797    3.45986046182026    7.41603393040116
C         2.64847618116594    4.28336346605531    7.12666198809846
H         3.38139929969442    3.62646881553833    6.63776502192712
H         2.38819544810670    5.08493389056920    6.42289103151794
C         4.52964668189255    4.74738663244801    8.40572912205857
H         4.99693124783516    4.08528410903299    7.67622028169882
C         5.42193955575298    5.37016077851538    9.31082426651845
C         4.94678100513195    6.42322308764757   10.14531975687085
N         0.43538399956921    5.03215131586073    9.13211555220741
C         5.89108035270962    7.15829397636528   10.93379450586057
H         5.50061678786278    7.97574453866941   11.52151240684800
C         7.20790586987445    6.84773510895934   10.92615206578948
H         7.91040226746292    7.42081304729136   11.51504949108904
C         7.70398535708317    5.75340779134219   10.16674687284079
C         9.06449151358571    5.41214155595378   10.22235862444718
H         9.72114243926232    6.01123048422836   10.83733804847039
N         3.23957334252624    4.91189620531029    8.29436814659105
C         9.55465599770252    4.34110838889442    9.52160719423644
H        10.60200328823451    4.08357702379389    9.56948790521739
C         8.68084953355357    3.57459646162278    8.74962524221569
H         9.05743718279446    2.71812355246122    8.20931436536927
C         7.34771532481693    3.89371753697797    8.67393514566873
H         6.70725905529698    3.26016355939490    8.08035066306456
C         6.81198814021213    4.99817075789182    9.36199853392238
C         0.96576453925392    2.76419638165900    6.11612228978565
H         1.75129025333272    2.09624253313811    5.77142020913758
H         0.76845395240100    3.49455269563960    5.33536208639115
H         0.06520869092019    2.17516138880354    6.27127168887181
C         1.66007594532378    2.41508135328357    8.49814702503732
H         2.45924399533333    1.74735065728249    8.18389796044426
H         0.76873302673037    1.82070340063765    8.68663693393463
H         1.95689320311234    2.90237764615642    9.42478436645935
S         2.92452551641782    5.33742611590688   12.30166176250276
C         4.46432014422826    4.48957078886684   12.84259073248557
H         4.73134126538168    4.84803688130002   13.82951923083446
H         5.24855284533657    4.74072231526866   12.13611857305140
H         4.30249911762423    3.41814701614791   12.84732726294084
C         1.88909570969236    4.58687232216675   13.62383179209685
H         2.24651184725493    4.93306613834387   14.58619988190993
H         1.94355391263713    3.50697170270989   13.55308355463969
H         0.86606178153860    4.91488811421077   13.47217878190007
C         1.65535130329663    8.18464108054135    7.61241730309055
S         1.42009735201334    9.40475577739375    6.63817513939957
O         3.71162670036850    6.73136349647996   10.23907281092267

