57
CSD_code = YEVPOH | q = 0 | S = 0 | Stoichiometry = C22H26MnN3O3S2 | MND = 6
Mn       10.83364739013492    6.27186378003590    1.59665249041751
C        11.31722103428043    4.03155127895192   -0.34535237168324
N        11.16080535360397    4.98983319395141    0.32921697705719
S        11.55366453661937    2.81882998496145   -1.32851720098755
O        11.71582814691533    5.35824255556659    3.03684581798767
C        12.86868758270952    5.50158594969672    3.57573407608771
C        13.20064734830367    4.76751434649818    4.74505446769182
H        12.46277993350777    4.07402917894385    5.12043411815434
C        14.41083260734242    4.92467532152041    5.36467341579073
H        14.64018171802656    4.34954877683188    6.25021216230429
C        15.35937369258433    5.82401322009045    4.86245181944745
H        16.30959248821089    5.93747186444242    5.36122728289350
C        15.07532764666754    6.54766332045815    3.73433576054560
H        15.80612206394569    7.23845447753600    3.33608166850616
C        13.84372021333724    6.41478064646839    3.06587853872752
C        13.60548572158340    7.16991523307359    1.88762480940431
H        14.46088174833251    7.77462591295126    1.56926450291800
N        12.53577333517199    7.20028282499427    1.14882925071350
C        12.68547378048048    7.94387443763809   -0.08928929491750
H        12.79955246898809    7.20733797511278   -0.89579052477640
H        13.60007647903708    8.55197747336786   -0.05349502075651
C        11.50889428066791    8.86626987701453   -0.43892133545099
C        10.27228899595824    8.02649143913849   -0.78929056408698
H         9.51848908437816    8.69278564420594   -1.23134576985892
H        10.55959140565207    7.28825115220178   -1.54986057111114
N         9.69362430444747    7.29099144429792    0.32099469701154
C         8.39484451612824    7.33304397413687    0.37149836110463
H         7.87927687181969    7.98430529435056   -0.34186695427693
C         7.51937887947700    6.60689193792940    1.22065259271687
C         6.13110121106659    6.81991458307285    1.12510478658506
H         5.76928248988389    7.54848333598159    0.41220555862434
C         5.24481559648237    6.12663593386926    1.90645799331882
H         4.18355912847010    6.30164375657054    1.81850976996140
C         5.72212045955312    5.17756598491791    2.81896456908139
H         5.02048278842711    4.62645457517990    3.42850600602027
C         7.06440373557877    4.94217136446982    2.94384227469049
H         7.44440695822711    4.21012779927821    3.64093663423108
C         8.01411351606700    5.64313365806882    2.15414643496701
O         9.26528631562038    5.42613855452710    2.31774944302463
C        11.20668540636028    9.82165895632824    0.71587778166594
H        10.38784982385846   10.48686611434471    0.45077335354864
H        12.08176530752586   10.42601156416686    0.94452532990278
H        10.92708476104149    9.26254950664751    1.60624781562809
C        11.89788785696884    9.67022156367996   -1.68509650311629
H        11.08810736205198   10.33359747967687   -1.97857257005497
H        12.11855088288644    9.00776766876834   -2.51848109651239
H        12.77726701252065   10.27804627975769   -1.48712688932945
O        10.41223461871220    7.60796584014107    3.16240995015626
S        10.04249961091853    6.74494409503059    4.33224229886720
C         8.49230802397314    7.55360843146400    4.90757520854636
H         8.63141562471958    8.62794042501437    4.92593908788690
H         8.24425542596236    7.17515157838688    5.89192383096798
H         7.70717143976122    7.29299701049646    4.20513382261990
C        11.07596612491735    7.47729103596056    5.66785280302895
H        12.10043430763175    7.16136622735621    5.49926803109666
H        10.72936687413446    7.10349614459475    6.62375624030536
H        11.00931370838077    8.55774801588818    5.62369483271298

