62
CSD_code = YEVREX | q = 1 | S = 0 | Stoichiometry = C28H23N8O2Ru(1+) | MND = 6
Ru        8.25971007098438    2.38957543489950    3.99556255956204
N         6.55170040144870    3.11573159623335    4.74394528257273
N         7.17168385537253    2.05984979825529    2.34552176508078
N         9.85552313295416    1.31390400591632    3.45115231640664
N         7.52669802436841    0.57512786541225    4.53943140753156
N         9.21272821852131    2.95375503085302    5.74939450999072
N        10.04999594570302    3.61023223178280    7.82157288354528
H        10.18230677398015    3.36941622270243    8.79895044085225
N        10.67555904185187    6.25116126950397    5.43806744603900
N         9.32181825476297    4.27124106451449    3.95624870728280
O         8.99019099733476    1.61620698191762    7.54827602490241
O        11.09945928552811    5.57405688834660    8.21849756144422
C         6.00406099120652    4.32151316386700    4.59101610251026
H         6.60569722184487    5.05415444522462    4.06526367094785
C         4.74694405283007    4.63791572009429    5.07240825523552
H         4.34948328310786    5.62980116374142    4.93397682857058
C         4.01882757310889    3.65872414348869    5.73212865232848
H         3.03434737843110    3.86767413661797    6.11868675881398
C         4.58640397271874    2.40366664896486    5.89137088608492
H         4.05519465737613    1.61994377678030    6.40792699177563
C         5.85794091440842    2.16399871811378    5.39299039449310
C         6.57747458068270    0.85991496076466    5.62331637131524
H         5.86535001430429    0.03970643770645    5.77355253291759
H         7.15685256459381    0.98344575869172    6.55058072695366
C         6.89836454564526   -0.09973102881995    3.39005179623603
H         7.63517842352393   -0.76821631119361    2.92706701164204
H         6.04355521273523   -0.71177698029637    3.70268582839430
C         6.47646941744728    0.90554518406573    2.34843323456282
C         5.46368048331987    0.64782034726563    1.44055014722037
H         4.93567552857326   -0.29196346883148    1.47914776154455
C         5.14057848391551    1.60441263762830    0.48951894084891
H         4.35948797037653    1.42290514009978   -0.23040728403007
C         5.84288014187074    2.80059118541856    0.49991586150855
H         5.62190926334570    3.58099205172673   -0.20953763787751
C         6.83735881993853    2.98507906618211    1.44104544487814
H         7.39312986022186    3.91087804414225    1.48958147489650
C         8.71667656339733   -0.15923956097264    4.99385749062480
H         8.99594655909060    0.22501192615180    5.98659340632499
H         8.52324640887337   -1.23469471766134    5.08675613854028
C         9.86702686116848    0.11293803551002    4.05900201497267
C        10.89965514849565   -0.79127261237010    3.86852080117856
H        10.87986224957227   -1.74341742208420    4.37491973192806
C        11.95656243522498   -0.45091757023207    3.03675590504284
H        12.77412575698317   -1.13633127987304    2.88174296673284
C        11.93644109608227    0.78728809092312    2.41281362431929
H        12.73627980316174    1.09451853918578    1.75940745199291
C        10.86834734169760    1.63527234675815    2.64600356124393
H        10.81335094992533    2.61157534903970    2.17883915531640
C         9.38983135340280    2.66264259942707    7.05586302623224
C        10.54669687938394    4.85010025940385    7.43518609169681
C        10.30678422121696    5.13008164534412    5.99990393595493
C        10.43940540307157    6.40176734873599    4.12467394486232
C        10.87550205321561    7.58541180549578    3.49412526644313
H        11.36838257916548    8.32113159806956    4.10864692538641
C        10.68611578686937    7.76329772132204    2.15199389814784
H        11.02309849021883    8.66699458668888    1.66923936312981
C        10.06873100031631    6.76216648617776    1.38491078254942
H         9.95491882811449    6.90674161026100    0.32120458077692
C         9.61957731572329    5.60580834168748    1.96575628657051
H         9.17575220959292    4.82218742736876    1.36972925412052
C         9.76948551724292    5.39789575445825    3.34848539310267
C         9.63137783045695    4.12838835940794    5.25317734582544

