81
CSD_code = YEVWUS | q = 1 | S = 0 | Stoichiometry = C42H34IrN3P(1+) | MND = 6
Ir        6.80372920812219    5.35953065909506    6.15401157860234
N         7.79875734530413    7.13262864459779    5.91101372791852
C         9.12128718674495    7.26367794277263    5.81507468921798
H         9.70681834273044    6.35453169276962    5.87657672522712
C         9.75145560279604    8.47957577876438    5.64590341382431
H        10.82497920522395    8.52586205291558    5.56672931120091
C         8.96995138278566    9.62615927839284    5.57474640833135
H         9.42373038456319   10.59383852261935    5.42846379030573
C         7.60198130221730    9.50343297029435    5.70535442739877
H         6.97457470996179   10.37823297775785    5.66905219817183
C         7.02447194732602    8.24442063881721    5.88330807514141
C         5.60314323059239    8.00228020324945    6.07815517899324
C         4.63911656725458    9.01165562644836    6.10890292810786
H         4.91766907348448   10.04328375272311    5.95829226404986
C         3.31523084464686    8.69480557272399    6.33147319349782
H         2.56933804236848    9.47432173341148    6.35174105847107
C         2.94572343395247    7.37333339806231    6.52699571683871
H         1.90955399976910    7.12443447413676    6.70164778865238
C         3.89837501248734    6.36672217399158    6.49245444500582
H         3.57625620811335    5.34510718094112    6.63985373778295
C         5.23648373851658    6.65507902143459    6.26871887394181
N         5.67326807433038    3.67472204843567    6.32185889366021
C         5.49901199106232    2.98479129612975    7.44865662585820
H         5.93085563079941    3.40841413125034    8.34571767637159
C         4.80167411549609    1.79679874429854    7.50647588087837
H         4.69378839685149    1.27556424467212    8.44336459934379
C         4.24434950137880    1.29805378421450    6.33526251355737
H         3.69391680613271    0.37053702822219    6.34042828310205
C         4.40249895574652    2.01583459980606    5.16924436567376
H         3.97410853463463    1.65540502137130    4.24926907744840
C         5.12603930964177    3.20981915112097    5.17529812938988
C         5.36340049169259    4.04967643863588    4.01256563618431
C         4.84926871000405    3.78202142230284    2.74269423809306
H         4.24690705900291    2.90359011698845    2.56988402637893
C         5.10311069601096    4.64576276961270    1.69828309320033
H         4.70642021269153    4.43946611883631    0.71624604087059
C         5.85644518829050    5.78861530299000    1.91830408205516
H         6.03949824446760    6.47678878951929    1.10650279516597
C         6.37040572830885    6.05722204565885    3.17627413204403
H         6.93477179898801    6.97000938380055    3.31569012575623
C         6.15754028726897    5.19265100831712    4.24338440211097
N         7.22302224496055    5.59853950999552    8.18086112484458
C         7.38308522171291    6.02029870628114    9.23683558455646
C         7.58439158887137    6.52417511067282   10.55460355402397
H         6.78287622439946    7.21866466080408   10.80782612366291
H         8.54146142275187    7.04344642626430   10.60598075553986
H         7.58568237543920    5.70167239329840   11.27001051644042
P         8.72241338898228    3.84409235787321    5.82346707580691
C         8.25379334526109    2.08951882677089    5.58997751702664
C         8.38192151746643    1.08438584446717    6.53927590205500
H         8.84766684984919    1.28280712876261    7.49298654437624
C         7.93810399921594   -0.19659871121683    6.25599316317566
H         8.04868478786848   -0.97349753592378    6.99769098842720
C         7.36392033636501   -0.48489973978391    5.03043829857501
H         7.01999651317018   -1.48514200031981    4.81660261244475
C         7.24718905448170    0.51094908712218    4.07357270044192
H         6.81670185285319    0.28933335678652    3.10877804441974
C         7.68656349098566    1.79002094812892    4.35118532288754
H         7.60406986664016    2.56720117671737    3.60267314901458
C         9.87596887702669    3.82237486953064    7.23728284572040
C         9.37775626560529    3.46393023248817    8.48904145637036
H         8.34347649610139    3.16195571577063    8.58494637051946
C        10.19262430416631    3.49401959284664    9.60479528789352
H         9.80212370100375    3.19254432494968   10.56605962323298
C        11.51014156020964    3.90802071963524    9.49043526521274
H        12.14819106649602    3.92920448716399   10.36048044270489
C        12.00281883444523    4.29993256226110    8.25727058681563
H        13.02521233742798    4.63409068064588    8.16540320566297
C        11.19189086994954    4.26315483762660    7.13637789481714
H        11.59157730635497    4.56858041430885    6.17935092055370
C         9.84638888968449    3.96115772227505    4.38888809691308
C         9.68785188575325    4.95637699213195    3.43382698647304
H         8.89771933928364    5.68346161441977    3.54574222575657
C        10.52726571641806    5.00320234566955    2.33347096316591
H        10.39671956608805    5.77773754858691    1.59286958723087
C        11.52630220823894    4.05737418974552    2.18205008830848
H        12.18080053176963    4.09426993284042    1.32478596573777
C        11.68188588019965    3.05524986866662    3.12849082018805
H        12.45547778593384    2.31212625828375    3.00730076239861
C        10.84435760837336    3.00126683616955    4.22532498356115
H        10.95899838643292    2.21524296516303    4.95977249522600

