117
CSD_code = YEVZII | q = 0 | S = 0 | Stoichiometry = C50H62Cl2O2Zr | MND = 12
Zr        5.04392659035252   16.74626482703849   21.81366755603550
Cl        2.78811888246925   17.15729959701294   22.38202409641913
Cl        4.44317784846377   14.64627006347953   20.99233285178189
O         5.30619574344133   11.67192094651694    9.67562193378832
O         1.14908850056218   10.75612796236049   33.13131742032539
C         6.50553136630982   18.17480686228091   20.38353421254385
C         5.47231709126830   19.04001313191497   20.81256046838124
C         4.26954936585931   18.58910695968970   20.23719121641036
C         4.54659104784587   17.43021537787108   19.47967224557278
C         5.94195407938209   17.16684708389703   19.55635133999939
C         6.77956673520942   16.14257081980961   18.81897763324939
C         7.61267690690431   15.35720800373054   19.84783834277289
C         5.94954911703343   15.14829286723985   17.96883208016300
C         6.76281043581739   15.00533179621659   16.68711801009739
C         7.23721497902012   16.44174548977003   16.41386637605904
C         7.73666916773352   16.84910827923549   17.80597610031990
C         6.12369471665923   17.41210764179186   16.00955834046714
C         8.30417140995507   16.38043060222417   15.32223628766717
C         7.76376633517201   15.69274605031344   14.06355973195160
C         7.19321592023019   14.29719257349078   14.35886349793254
C         6.12380265384570   14.36981611742469   15.46146966622007
C         5.58663807785871   12.96640242043013   15.71782761492842
C         4.80086889888667   12.51494201025368   14.49406461138958
C         5.54510177497671   12.75475309806860   13.20719876040399
C         6.65149878171202   13.59744358550280   13.12935787555945
C         7.28080894804977   13.73058166261734   11.89328475870459
C         6.82051309564047   13.08676321341389   10.76679356915445
C         5.69683897928925   12.26601031171008   10.84139372446272
C         5.07524212365722   12.10555226109065   12.06871580515084
C         4.17919481628268   10.83295939471588    9.69779093331189
C         5.14851531350384   16.89129237018992   24.28247582985879
C         6.00257324522033   17.90750511415814   23.79976351114247
C         7.09503998607241   17.28519560264341   23.16001878401271
C         6.89616463108711   15.88509922307973   23.21362333531805
C         5.69266076884433   15.62857490419693   23.92907859962628
C         5.18302840517551   14.28163420698571   24.39526307901910
C         5.97839964746645   13.15490607726021   23.72207671533468
C         5.31884747354302   14.14434180526396   25.93765252878092
C         4.12639871177306   13.26845949870683   26.30461304491338
C         2.97617836801035   13.86117843918782   25.47609537173346
C         3.66084367686386   14.08823215957659   24.11491646100507
C         2.44693831810923   15.19464260539237   26.01460060014150
C         1.84495952390058   12.83204138531273   25.46266542223502
C         1.42200987479456   12.43828848328795   26.88443602868585
C         2.60188541021884   12.01385120423344   27.77419954889895
C         3.72071502976475   13.07035047642622   27.75745125113544
C         4.86017817956993   12.58901530135090   28.64867959313035
C         4.38892402394679   12.59967731692686   30.09662821686836
C         3.04215465573186   11.95080053257098   30.27202035643232
C         2.18811089953817   11.69279241059884   29.19569756118002
C         0.97175469661616   11.08129871866434   29.46817379564374
C         0.57600441620118   10.75099753949950   30.75248138318187
C         1.41857163802152   11.02755444622731   31.81986466788863
C         2.64806865493392   11.62229255480957   31.55839848961548
C        -0.07866147794787   10.14912487397888   33.44580027280773
H         7.56459813661432   18.36038938530302   20.50592505505818
H         5.60461263147792   19.96648078712367   21.35768730064431
H         3.31069708597220   19.08862611238948   20.29463240117092
H         3.81044181995926   16.89989376938011   18.88694807074891
H         8.29049747238115   16.01855421658733   20.38903381473491
H         8.21135708388361   14.60335546942345   19.33943195073067
H         6.94983387194419   14.84916159044196   20.55566674833840
H         5.81546317472773   14.20546653911172   18.49578349406554
H         4.96367541453910   15.54133294664785   17.73305006369189
H         7.65574913684258   14.41422046132454   16.92771347979761
H         7.72838677114041   17.93011838240324   17.93553259252780
H         8.75857583966888   16.49758413097944   17.95503665127550
H         5.57777807854553   17.07563399345943   15.13442490228839
H         6.56455441646984   18.37990007645674   15.77643245410517
H         5.41978842433929   17.55591305900193   16.82306258072575
H         9.16522165681527   15.81590866321567   15.69043695527212
H         8.65107534413593   17.38371670066817   15.06506220850690
H         6.98997047981464   16.30735258867264   13.60213142563388
H         8.58623889798543   15.61402542948141   13.35219455893706
H         8.02015253023084   13.68172683292092   14.74384099814051
H         5.29093072708538   14.98795223135914   15.11549208621934
H         4.93842783786507   12.95752659150856   16.59489652747639
H         6.41714261415245   12.28185285886131   15.90369989605480
H         4.55008330665173   11.45440673011830   14.57516111727337
H         3.85479571803897   13.06577915182355   14.45234396460076
H         8.15972662724407   14.34843274405770   11.79990833951400
H         7.31635303468091   13.20135191072400    9.81613221741946
H         4.21074156173393   11.46670690951086   12.17117639797615
H         4.32975578120889    9.97250334259526   10.35847254332266
H         4.05194048338885   10.48159402103610    8.67487572804433
H         3.27924271695944   11.37466943650901   10.00786209938400
H         4.27276809173638   17.06184996231293   24.89299095619718
H         5.90324318317541   18.96491232139057   24.01353640103779
H         8.00042620114266   17.77863985621090   22.83247566592214
H         7.63667734031221   15.14878147831873   22.93196481900359
H         5.61062413273384   12.18902603110434   24.05858513246260
H         7.03426158184842   13.21641209728193   23.97830837655746
H         5.86692185222198   13.20380056223279   22.63974929097013
H         6.27167324779639   13.68991984037596   26.20455454123797
H         5.26275238440499   15.11756373281874   26.42382586061743
H         4.33416971185325   12.27162414554842   25.89704317699339
H         3.23426668776083   14.94757020116752   23.59210855943380
H         3.52126209806565   13.21594369649041   23.47503875232023
H         1.78897810681141   15.05510424734100   26.86641805383131
H         1.87899580601255   15.69964433737539   25.23546434296481
H         3.25640406369119   15.84628286916079   26.32740969947397
H         2.18290320002072   11.93624288453372   24.93547429430397
H         0.97876478095144   13.22531228118856   24.92691803902017
H         0.71530840968131   11.61230737733045   26.79571465494578
H         0.89454462899718   13.26266185971858   27.36665606841171
H         3.02034102971318   11.09173976831301   27.34368041882770
H         3.34134856569342   14.00873029036211   28.16988708043812
H         5.73060590142847   13.23822600724003   28.54205511485173
H         5.15424539283414   11.57835038511354   28.35679649249880
H         5.11714773132115   12.09843633411127   30.73845560274321
H         4.31641293517583   13.63648036988200   30.44221450236248
H         0.29698088383817   10.84211236608075   28.66140215929573
H        -0.38294900863286   10.27968301925214   30.89975751619631
H         3.30233318133201   11.82392447318023   32.39318386856834
H        -0.92619136298467   10.77606800314026   33.14887780819142
H        -0.08179716245930   10.03089621723793   34.52841334814401
H        -0.17409073442531    9.16473765946550   32.97521926889200

