34
CSD_code = YEWBUY | q = 0 | S = 0 | Stoichiometry = C11H16Cl2N4Pd | MND = 4
Cl        6.14635544634328    0.52673407906836    2.48581846910292
N         9.05715356535327    1.20839444853058    2.05354419209138
Pd        7.58890629468100    2.09955735977491    3.20395998271411
C         9.11620100860797    0.68656115504546    0.84541871034089
H         8.25882458266410    0.70417677854167    0.20087201546462
Cl        6.15063924628704    2.85332679874581    4.73969854465334
C        10.39018535862249    0.14622217617759    0.62403135808103
H        10.74144712394069   -0.34762715084862   -0.25753681337045
C        11.08854644801955    0.38123154880102    1.78354918285410
H        12.09256547526811    0.13437874470668    2.06379931973466
N        10.24930528946824    1.02036898352677    2.62714762611728
C        10.47034449928402    1.49145660835070    3.97511320023867
H         9.75263319421114    0.97986616404387    4.64926253467923
H        11.49807861505150    1.27128487896775    4.27484953549882
N        10.22176497804086    2.90826535259646    4.02725866933101
C         8.99073073530892    3.40935155261699    3.75157473890604
N         9.13709559972078    4.74242580772953    3.73925284187127
C        10.43982579633212    5.07534473645300    4.01167397398282
H        10.77285877608719    6.09169132796758    4.06255544996368
C        11.13104395238270    3.92569411367997    4.18314961485527
H        12.16247933748367    3.75221197470179    4.41035017405678
C         8.10257175770516    5.71848932009583    3.46227096463835
H         8.60388327830306    6.64408038025215    3.16363291543112
H         7.53637944745813    5.90015498507719    4.38171056034705
C         7.12767358382288    5.25568725464671    2.37805547156932
H         6.56647201689299    4.39418721891023    2.76772955893720
H         6.41395049662258    6.06137046359098    2.20487521583206
C         7.79635421683512    4.85374406942524    1.05930640178987
H         8.76277844800656    4.37734396630509    1.25713968250985
H         7.98163888370166    5.73664599516544    0.44215944752294
C         6.91589362380737    3.85986716414543    0.30616345878153
H         6.74383432518680    2.96863770580633    0.93348413792954
H         7.38742275715597    3.55034366202390   -0.62390357423801
H         5.95156184028825    4.30493037539991    0.07323243702000

