23
CSD_code = YEWCOT | q = 0 | S = 0 | Stoichiometry = C6H12Cl2O2Pt | MND = 4
Pt        8.38405722351867    6.25668744353323   12.69580935534079
Cl        7.18939651198829    4.76416616606831   14.13400950540288
Cl        9.93269444315926    5.67294867351280   10.96595916922199
C         9.18811983491100    7.47008026543571   11.34630349289296
O        10.20744380000017    8.33511039977421   11.47870007611137
C        11.05132210846933    8.17966425490689   12.59863655604793
H        11.64422087268054    9.08842645154398   12.67511864526159
H        11.71176825025148    7.31766538529329   12.46261103794326
H        10.45356925801911    8.03998138364500   13.51007520867461
C         8.34844933149142    7.85068575851581   10.14785979820224
H         7.61950541350202    7.07471894032585    9.92156155069017
H         8.97831555884193    8.02743204733884    9.27624663734738
H         7.82296568405875    8.77457039052692   10.38585387636261
C         6.95540605330657    6.72111636764831   13.99329475024536
O         7.08241809970331    7.25448620336902   15.22114639942814
C         8.33583724294984    7.13231716804352   15.85772720039287
H         8.39836001665231    7.92603165817977   16.59973476876754
H         9.15013319201051    7.23107221261590   15.12289718668156
H         8.41505167174408    6.15804863751907   16.34974355925295
C         5.55712705618876    6.96225024723443   13.47230341605512
H         5.38518306041202    6.40571988579538   12.55293379426424
H         5.45410474020901    8.02706609217088   13.26831178637543
H         4.81285057593457    6.68045396692428   14.21676222906600

