93
CSD_code = YEWDUA | q = 0 | S = 0 | Stoichiometry = C44H40N4P2RuS2 | MND = 6
Ru        7.00394264252198    0.12936980939760    4.02044965678137
P         4.87765460500790    0.91494925920705    3.84793468855499
P         7.22076548801632    0.12105053578078    6.28535501600197
S         6.57271572728539   -2.30241251036462    3.60416103094789
N         8.81487749206576   -0.96343327960044    3.76350860459293
C         8.25880139893070   -2.12262706648093    3.43847083225810
N         9.18318206906060   -2.99136275801584    2.97216832649076
C        10.14135826619357   -1.07280400619781    3.47779907817875
H        10.82279609391572   -0.26105824419750    3.64002432613640
C        10.38747117254968   -2.32162520071084    2.99569569894540
H        11.29536389258658   -2.78871499198344    2.67530907304510
C         8.93823974457363   -4.33388336748621    2.53459044755324
H         9.47702759365914   -5.04634238233216    3.16339502611012
H         9.25588742267666   -4.46252423176082    1.49759571938652
H         7.86742252196759   -4.52257332720222    2.61153993812464
S         8.21638538026387    2.24596253690757    3.43733455122760
N         7.26875071009549    0.33327468806947    1.93060605787656
C         8.01223557411694    1.43016606967786    1.95558451334703
N         8.52200548444178    1.69591987459102    0.73226851114994
C         7.30680200553771   -0.14220658859019    0.65652413300474
H         6.77663239846886   -1.03113537483431    0.37287958593492
C         8.07275937467728    0.69172788169804   -0.09942214947499
H         8.33393173443255    0.66416836363429   -1.13676910105911
C         9.36784935645054    2.80083369819930    0.38942139342339
H         8.89493322582270    3.42299801850451   -0.37358475462026
H        10.32989096955441    2.44548450221812    0.01322617587892
H         9.52777725205765    3.39346069196501    1.29007151557602
C         3.60474563198019    0.24617545654492    4.98415949672833
C         2.56936793919789    0.99972118704957    5.52882347714927
H         2.46877192546477    2.04753457681916    5.28506949932836
C         1.66898868325213    0.41489757798139    6.40161181255994
H         0.87136122390165    1.01081928700356    6.82204008348393
C         1.78559021476830   -0.92303341228727    6.73829711396308
H         1.07776917624766   -1.37382688130070    7.41851495490536
C         2.81839783836618   -1.67682118389315    6.20745753178293
H         2.92374486777498   -2.71863342838274    6.47139068258267
C         3.72846358775500   -1.09262662618099    5.34682771428114
H         4.55407744492288   -1.67267709107023    4.95694116784183
C         4.24229677286257    0.38320828361042    2.21861575742687
C         4.51907237045802    1.18511638317798    1.11212925187979
H         5.01545046345190    2.13770092549821    1.25459500595717
C         4.16609963377613    0.77055578034807   -0.15723825636373
H         4.38364028852547    1.39953765818863   -1.00915242749191
C         3.54289320348062   -0.45397101487242   -0.33862955875594
H         3.27050801614375   -0.77995330793666   -1.33225466456020
C         3.27785761675645   -1.26045616774205    0.75510107191855
H         2.79954823009103   -2.21951220393783    0.61614039739470
C         3.62855256576334   -0.84898888844518    2.02918862992777
H         3.42812309569122   -1.48775150944985    2.87700194019828
C         4.42857113363031    2.68568344762246    3.77366413041490
C         5.29005240969303    3.64183417782219    4.29529774648636
H         6.23512879436001    3.32920336505305    4.71737267953188
C         4.94904490345306    4.98307523546222    4.25989523471304
H         5.62800919659118    5.71779394882550    4.66716011379351
C         3.74532616473430    5.37830448394729    3.70304559915592
H         3.47767471129489    6.42477996073749    3.67377294062181
C         2.88260353582082    4.42934043817968    3.17490248041417
H         1.94393517869071    4.73644588900240    2.73565839492923
C         3.21945395593692    3.08968542799868    3.20763788046384
H         2.54913138975650    2.34996689513717    2.78944664139435
C         6.93851978764903    1.70714958602582    7.14739510912145
C         5.65966476269945    2.24817638605444    7.03570632748622
H         4.91541974998754    1.70710194528686    6.46502291502589
C         5.34325932530738    3.44845097006298    7.64106888054025
H         4.34671245780865    3.85461842151676    7.54367714581527
C         6.30990501907612    4.13132063202921    8.36201429553382
H         6.07132230555713    5.07501152530252    8.83058285063781
C         7.58262057496183    3.59985058810296    8.47978074869346
H         8.33790551606338    4.12887300706485    9.04320547408705
C         7.89935012896383    2.39142867988640    7.88199125885024
H         8.89497075750836    1.98756942188559    7.99061017819074
C         8.93831999774966   -0.24927561763762    6.78023137928213
C         9.31827379870135   -1.26474774554346    7.64822226575232
H         8.57185648641082   -1.89620936487962    8.10842505018670
C        10.65947792161142   -1.46862846975939    7.92858554760789
H        10.94897799902680   -2.26343978910215    8.60144709961273
C        11.62665014066251   -0.66048342098281    7.35701594658858
H        12.67092158582983   -0.82450422085940    7.58098310465849
C        11.25223507180686    0.36023039059835    6.49668471711275
H        12.00476463711863    0.99676468241240    6.05261084416370
C         9.91737037710057    0.56079362265152    6.20480917980204
H         9.61221788058295    1.34696433992860    5.52384196884681
C         6.26953713432744   -1.03170460812511    7.33660753897770
C         6.36070402679932   -2.38314877089282    7.00494991078749
H         6.97327531099028   -2.67699198051472    6.16193350224806
C         5.66900731900027   -3.33358028497013    7.72954094574985
H         5.74731779702149   -4.37781119602831    7.46273655251337
C         4.87109118094293   -2.94417994233728    8.79392253747910
H         4.32431493154254   -3.68414426463780    9.36058330190379
C         4.77568234105791   -1.60465851974185    9.12843437305735
H         4.15526465322955   -1.29836503448465    9.95847084652702
C         5.47213725871633   -0.64946748240227    8.40810289844934
H         5.39324000263864    0.39114524351113    8.68558288529155

