41
CSD_code = YEWDAF | q = 0 | S = 0 | Stoichiometry = C17H20MoO3 | MND = 10
Mo        1.46511685419640    1.96796123311142    2.09439142255858
O         1.67272004925529    3.71219127362996   -0.41948804631489
O        -1.28684021425632    1.47484369878631    0.83854966369158
O        -2.88367277250296    3.97983756594221    4.65686666875805
C         1.59384246390952    3.05184361844825    0.51925979697735
C        -0.25139441367829    1.66196329278441    1.29963751821579
C         3.40440693082452    1.34517793599582    3.26038314976171
C         3.59021608896190    1.03058211006759    1.90768604166342
C         2.60652230007552    0.07054276698309    1.53918379032551
C         1.85208596945413   -0.23738013335969    2.70682484207848
C         2.33101588385596    0.56109188245594    3.75399262359657
C        -0.19774572689558    2.87134979116554    3.43644662692831
C         1.08766227697615    3.43627534371212    3.65519861820680
C         1.55591871984993    4.24277874825834    2.58223434020596
C         0.60458037586933    5.24946813863374    1.97515300413914
C        -0.81228287412895    4.70367666113426    1.78464250482814
C        -1.29947718978925    3.76449628276369    2.89482663904277
C        -1.90028796206726    4.43988873324266    4.13271384062452
C        -1.17570999418367    5.64391717728599    4.68127982029966
C        -1.70492291645881    6.06523249762940    6.05040673643432
C        -0.97223207390859    7.29008099622932    6.58051118371365
H         4.06480758129552    1.95701232445548    3.86289142335276
H         4.40918295494720    1.36103506152633    1.28240316938510
H         2.61342948796908   -0.51417066570339    0.62585233694613
H         1.12979123347770   -1.03818589314349    2.79419331755717
H         2.03984287423605    0.47939298012938    4.79428204836550
H        -0.57192263973921    2.20934711894781    4.22153534548819
H         1.64297394162650    3.30863301816111    4.58602468348769
H         2.56045017299828    4.65696257908675    2.70227951162423
H         0.98124385701487    5.59391696924381    1.00866281658384
H         0.59359365352131    6.12450000428942    2.63477440946114
H        -1.51321821177719    5.53507298435857    1.68127870579946
H        -0.84149248470409    4.14495638861730    0.84623532423107
H        -2.10641231435020    3.13973606925074    2.49328591034264
H        -1.30260095917932    6.46500836948354    3.97123362458344
H        -0.11002847681943    5.41411239716091    4.74029619719491
H        -2.77220237480945    6.27538111286816    5.96947200660305
H        -1.59001333773547    5.23349136260760    6.74772056652198
H        -1.35639677195692    7.56948466886953    7.55818069323154
H         0.09317500313910    7.08920830356059    6.67653712896566
H        -1.10152496451089    8.13578523133731    5.90825999453621

