83
CSD_code = YEWFOW | q = 0 | S = 0 | Stoichiometry = C34H43Cl2N3Ru | MND = 5
Ru       -0.77988053219491   11.75695376485009    4.95422674965722
Cl       -2.94927986265643   10.86595810356456    5.36197802484681
Cl        1.33048673761771   12.63243715774298    4.26886262033955
N         0.56958732474098    9.08151148524270    4.34746355729562
N         0.87622633615555    9.71797786145413    6.38517628051997
N        -1.55623014058610   13.60743717011429    4.54173620815531
C         0.20635126705350    9.98962947138802    5.25957406642161
C         1.55105588604087    8.11530708202259    4.84354790507272
H         2.47297072205480    8.18846722831220    4.25991997274786
H         1.16116454322165    7.09753944816276    4.74135979747697
C         1.73984724196388    8.54431704092717    6.29139385451051
H         1.42109241542562    7.78248293294743    7.01136656998607
H         2.77358506599426    8.81547865055531    6.51851951427817
C         0.03457385359782    8.76438181194477    3.06892508264051
C        -1.11757155354942    7.97517846358027    2.99582707447943
C        -1.50273048984001    7.48095612253629    1.75682453514540
H        -2.38763694673882    6.86424097781047    1.69237521556137
C        -0.77761105880093    7.75696048876977    0.60592148896307
C         0.34388914550918    8.57059921437864    0.70362763681684
H         0.90640489673592    8.80788609554528   -0.18841782536396
C         0.77045894847800    9.07694133108557    1.92371020648652
C        -1.92056818321300    7.68073172058224    4.22107300861161
H        -1.30515783959420    7.24460718040670    5.00673031565292
H        -2.73232554823982    6.99556726939146    3.99274972487653
H        -2.35080146430164    8.60515499243772    4.61240766545960
C        -1.18828026229388    7.19867039069205   -0.72282363913357
H        -0.48466488767267    6.42848965143321   -1.03918917589073
H        -1.18956789270942    7.97883381593971   -1.48233492875551
H        -2.18004082098501    6.75674661340750   -0.67068642167956
C         2.00010278606561    9.92869163341268    1.99907341231568
H         1.91449955380927   10.68064059296549    2.78253301447254
H         2.17063928844109   10.43293431073032    1.05073449323172
H         2.87822743975420    9.31738739322415    2.21260617167338
C         0.78130284395636   10.33184092690883    7.66172911499871
C        -0.24633527054319    9.93067498998254    8.52730866345667
C        -0.27047301842045   10.44839853344408    9.81197001423654
H        -1.06733217368223   10.15830642883318   10.48200039417599
C         0.70744933422679   11.32758659415669   10.25992755472280
C         1.73121843761831   11.68175362332413    9.39500948219865
H         2.50343565586315   12.35723286453711    9.73519524745909
C         1.79543247504905   11.18752938616607    8.09956975871722
C        -1.31401982444243    8.99584710257727    8.05400103225143
H        -0.88990347260962    8.04416201018762    7.73697410243737
H        -1.83915592659077    9.42809306314518    7.20018907368590
H        -2.03484574754783    8.80564810219799    8.84439677533930
C         0.66795011381781   11.85827961491312   11.66094838197946
H         1.24821664229154   12.77383339342668   11.74668501653500
H         1.08902464944005   11.12466089720092   12.34903537263972
H        -0.35578063157229   12.05672054369010   11.97078330369944
C         2.92585592432320   11.57683765681239    7.20057841949003
H         3.39672396868043   12.48982234271398    7.55563684607071
H         2.57052696136339   11.73689816016160    6.18426708825651
H         3.68783570246668   10.79687823313058    7.17892667569608
C        -0.76955002153062   12.27851358952227    6.76650484128824
H        -1.44945372715681   11.82352463752276    7.49233358856176
C        -0.19149937125737   13.55465595326949    7.22682391617308
H         0.80659523286270   13.70064646356865    6.80516149785926
H        -0.12630800408919   13.59089051153761    8.31780359819195
C        -1.09218907336662   14.71874035579706    6.74228400697851
C        -1.05092997885015   14.78059395739706    5.20714560871818
H        -1.60555957728509   15.66980411664569    4.87338750658292
H        -0.00346898205788   14.88481693448173    4.89463540880784
C        -2.53442057057114   14.52405474205013    7.21564784264973
H        -3.14238817806434   15.38364976435036    6.93786114739525
H        -2.56741361666581   14.41578152091503    8.29711580504640
H        -2.97016738075801   13.63162039678131    6.76795543895032
C        -0.53453502973044   16.03248376159954    7.29280764231891
H         0.49244612878733   16.18099868494006    6.96765949229208
H        -0.55406268042732   16.02140877064693    8.37982678286475
H        -1.13053662427447   16.87587576270882    6.94974036079465
C        -2.49321683475539   13.76526960017401    3.68523688757229
H        -2.97575284498548   14.73959145364656    3.56558836636645
C        -2.92511305555043   12.71178723063092    2.79846680514228
C        -4.18456577200198   12.76186940433056    2.19703364472192
H        -4.85774845970585   13.56803113397833    2.45084698025750
C        -4.57495570536197   11.77770686442474    1.31247014905286
H        -5.55955591937646   11.80976865372795    0.86989933348704
C        -3.69555266216637   10.75884172319959    0.98318131310553
H        -3.98575116875481    9.99850484331459    0.27360859841822
C        -2.43271980642337   10.71490575845519    1.55356810018031
H        -1.74479918974077    9.94147820864838    1.26271014155712
C        -2.05058534048498   11.66579013690430    2.47811265699232
H        -1.01938439922426   11.65419312977116    2.88125804274271

