56
CSD_code = YEWHUE | q = 0 | S = 0 | Stoichiometry = C22H29N3OPt | MND = 4
Pt        5.78694457659465    3.99138968462391   12.34753262944281
C         4.47974788676492    9.21600764056065   16.96004394153274
H         4.82442639252334    9.05921794149794   17.98197175349802
H         3.44862706267466    9.56618054546682   17.00695224351184
H         5.08904081955474    9.99115472031024   16.50256908892082
O         4.68402810024201    4.34658890749026   14.14286081427171
C         4.67284056107781    5.47226970138862   14.74031730041927
C         3.91185899666913    5.62366216118725   15.93240298125643
H         3.36830679093887    4.75600293364884   16.27941222388409
C         3.86109000448990    6.80184725255132   16.61693359772189
H         3.26931214273309    6.87130091505811   17.51968108975802
C         4.56456151564493    7.94047967294930   16.17655592144289
C         5.30724663014271    7.83623159720514   15.03398430699873
H         5.86529899796829    8.67890818572453   14.65269353072837
C         5.39094651764902    6.63570480250683   14.28975268998962
N         6.16729498871521    6.72744057881138   13.19755638653235
N         6.42282862626311    5.81555377669188   12.35278388009196
C         7.28544277727907    6.25264871364929   11.30520227940366
C         8.66672994303643    6.11902599430738   11.45583093224323
C         9.48985280689647    6.53593440895348   10.42056146211250
H        10.56058091926712    6.43386458472677   10.52143191628665
C         8.95276518366476    7.08133750842881    9.26825864855698
H         9.60518118779141    7.40357678210521    8.47028737894302
C         7.58224610333480    7.21424828332629    9.13493359502120
H         7.16616397425649    7.64088052761157    8.23387926377196
C         6.73043507032625    6.80756756636535   10.15079940102306
C         9.21585731982782    5.52696323870591   12.71665948149315
H         9.09887745128373    6.22798652602794   13.54291067356763
H        10.26991427952398    5.28619383850463   12.60843948321055
H         8.66321541240977    4.61862896764744   12.97061954703295
C         5.24310175477579    6.93887478128131   10.03963866172627
H         4.94721625808886    7.18323335359331    9.02307614304558
H         4.88420671013289    7.72166330043175   10.70766535205875
H         4.76529465671423    6.00222852047747   10.33855432308127
N         5.06752267932785    1.99485633633144   12.38441642360514
C         5.62005644178041    1.31470357836146   11.23920632537577
H         5.33757265815207    0.27108967633133   11.12930893776428
C         6.41458990860442    1.96529516318504   10.40673160393395
H         6.83334979377004    1.45724105430676    9.54448194756028
C         3.59945131430774    1.98756373174784   12.30809377422229
H         3.21468786599022    2.42384640084483   13.23382821438489
H         3.23342131592926    0.95201783897734   12.23068881244228
C         3.10384561510920    2.80829100370634   11.12520574084251
H         3.49244015087356    3.82825791829469   11.20566582577812
H         2.01745248631062    2.84832333414028   11.12873479157081
H         3.43877872275939    2.37966945932656   10.18305283186469
C         5.50484046793752    1.32750106819569   13.61918550116693
H         4.99070130430307    1.80532026203775   14.45743748885017
H         5.21774948443521    0.26487779796574   13.59245125827261
C         7.00902825395443    1.45903985285698   13.81556139959097
H         7.55342342728201    0.96553552359635   13.01329220536879
H         7.30081189166964    1.01669839395696   14.76481380466430
H         7.28044681706706    2.51927985034633   13.82510328969968
C         6.75510669435285    3.40623464415717   10.62662672367170
H         6.45527780291261    3.96633576144993    9.72920946400148
H         7.85006248399670    3.49432343576134   10.66685071283771

