67
CSD_code = YEWJOZ | q = 0 | S = 0 | Stoichiometry = C29H34AuO2P | MND = 2
Au        1.01978522882409   -0.33160768950988    4.00633615775512
P         3.18343024023045    0.20725973125129    3.56559478715326
O        -1.44226972250022    1.85444412014238    4.27001197539005
O         0.08600860011763    0.17943796730225    6.49551080003689
C        -1.02784754538845   -0.48247350923189    4.54393248308315
C        -1.44255663485342    0.71934286492454    3.81312836384653
C        -1.91613039632961    0.53439030067247    2.34943104011030
C        -3.37434576541910    1.00789486879368    2.31331576025822
C        -1.06061358602240    1.46493346036423    1.48231057808322
C        -1.82825844232532   -0.88526398620725    1.79707245029048
C        -0.93773052618798   -0.27432265463608    6.00711585587816
C        -2.12528560355381   -0.65879658470138    6.88469066572455
C        -1.99988458423386    0.04480374932787    8.23718355038705
C        -2.06309658670256   -2.17942846534670    7.08933441736471
C        -3.44603351288807   -0.26674537319479    6.21939132813253
C         4.27437505260195   -1.09617543604500    2.93844726570395
C         3.97514686882730   -1.62145572123710    1.68154465655804
C         4.71339211782562   -2.67329713368896    1.17604611750788
C         5.74087252073141   -3.22173116777440    1.92904231306257
C         6.02044122067691   -2.72266993955624    3.19035559235143
C         5.28681317675555   -1.66652342460047    3.70191026721850
C         4.06716854756856    0.93739375607860    4.97127978989678
C         5.35749818051130    1.43974703143096    4.81352667801070
C         6.00314065174025    2.01508221725589    5.89032911712348
C         5.36450602552317    2.09957508152744    7.11922059535667
C         4.07770680678138    1.61190063998001    7.27126495630157
C         3.42193144501083    1.02991495437140    6.19918195212446
C         3.30985551663019    1.54252668260687    2.34075710408783
C         4.29675512744333    1.61844560838157    1.36483382555579
C         4.31698420100257    2.69520864547355    0.49593192191657
C         3.36361545632625    3.69490747291593    0.59912956749326
C         2.38231157137938    3.62287336662685    1.57543310996235
C         2.35262855209556    2.54924937804541    2.44461409756536
H        -1.60297638651242   -1.35742983265605    4.26654736524539
H        -3.75030637422336    1.01264724246163    1.29173990946652
H        -4.00404408542792    0.35247989208172    2.91247156583451
H        -3.44248893483146    2.01395784259732    2.71977482747714
H        -0.03502000420911    1.09845489853595    1.42687379700193
H        -1.46273486828557    1.52862287996798    0.47277797115920
H        -1.04780764174993    2.46078052587476    1.91858764670698
H        -0.81917057875486   -1.28348887510760    1.89541546704040
H        -2.51973333290621   -1.55583330191119    2.30261652833202
H        -2.09088552386158   -0.87515591091720    0.74010053419601
H        -2.79911406326941   -0.26963498640064    8.90523692509383
H        -1.04233853879377   -0.18959295927532    8.69566970112052
H        -2.05617560676038    1.12209226055139    8.10072916500788
H        -2.88303115910751   -2.49901057836117    7.72974870022498
H        -2.14136854495860   -2.70629121666721    6.14064220259183
H        -1.12371476598236   -2.46005600858641    7.56166271881711
H        -4.26970066357574   -0.42083552140876    6.91427551462257
H        -3.42446271591556    0.78160471276906    5.93160028391890
H        -3.63492562082875   -0.86342319027974    5.33037962070846
H         3.16318420800064   -1.19048802123737    1.10900771458180
H         4.48713883441479   -3.07079127832539    0.19768104666106
H         6.31826025161614   -4.04425178631659    1.53420813758808
H         6.81232854359235   -3.15950576198031    3.78081094160609
H         5.49978056483970   -1.28161670415502    4.68941034720193
H         5.84513870954308    1.37715240527427    3.84954553827931
H         7.00453947985540    2.40303318904260    5.77275417388474
H         5.87318979516528    2.55306657890149    7.95718978811840
H         3.57758949666041    1.68666485031117    8.22495780579093
H         2.41170617637967    0.65930606711869    6.31064745387417
H         5.03899323880126    0.83662608905783    1.27810832009717
H         5.08124553443527    2.75293195950165   -0.26542176448749
H         3.38454010718942    4.53053616632459   -0.08447743145472
H         1.63711578526134    4.39965612375171    1.65579603308061
H         1.58553448175612    2.47805143870400    3.20582230942357

