131
CSD_code = YEWMET | q = 0 | S = 0 | Stoichiometry = C36H80Cl2O8P4Ru | MND = 6
Ru       -0.00027859351859    5.14868848912145   -0.00005919439518
Cl        2.05035347510273    4.45755314383077    1.03783202401232
P        -0.28643094442225    6.53947988830678    1.78754622916438
P         1.12295095571563    6.96550316762313   -0.86759972704326
O        -1.83676863469976    5.34459997397368    5.86892780389990
O        -3.67791992221046    9.17428799607524    3.32721476989665
O         5.74208492595890    7.23095175171139   -1.33634626994545
O         1.41450150093150    9.32622906641769   -4.59582818115150
C         1.19770142085924    7.63623669196297    1.81222106659126
H         1.11229785958720    8.39308491811132    2.59802160659929
H         2.05374617201364    6.98705611555527    2.02675694248905
C         1.34794338523860    8.27369343989258    0.43589785779716
H         2.33043439716292    8.73959119972482    0.32326170222371
H         0.57754679536229    9.03601460576534    0.29576264567342
C        -0.29059207473450    5.84782369668241    3.48622924841170
H        -1.12553383098338    5.14162303521425    3.53600646171878
H         0.63753101731637    5.26835730327095    3.55740410157213
C        -0.41376409175912    6.82531466746123    4.65112909536560
H         0.48325068827073    7.43788398344194    4.74548730313979
H        -1.27569796237301    7.47817657748476    4.51037444585775
C        -0.61644888883460    6.04889172423543    5.94956913748564
H         0.21409831309864    5.34073915010126    6.10288006401979
H        -0.63811926426504    6.73857385595144    6.80888802724941
C        -2.08205872962630    4.53557784065912    6.98521712216803
H        -3.03417410286141    4.03893292155895    6.80835306312529
H        -2.14527667593201    5.13076467155804    7.90572412918486
H        -1.29475887569383    3.78073978009722    7.11079688587554
C        -1.61602772554392    7.81072087894034    1.76684517170574
H        -1.36275629342575    8.59414476347597    2.48775977964139
H        -1.61084665365411    8.23635315820684    0.75720451308677
C        -3.00730263994601    7.26053331615200    2.05860776024375
H        -3.00332008779043    6.69461504472985    2.99235159142520
H        -3.31691189402900    6.61251566038843    1.23775912086256
C        -4.01574580696867    8.39447901716467    2.19695391657225
H        -4.00967761018822    9.02324878185394    1.29281225837261
H        -5.03147241561733    7.98585300690303    2.31791928796644
C        -4.55426088620429   10.24633194985764    3.53521717780587
H        -4.20637407122934   10.77047508290123    4.42355309080399
H        -5.58235876727470    9.89689692845532    3.69748979226485
H        -4.55283078388008   10.93555033880753    2.68029387378879
C         2.85008842743594    6.67123524557463   -1.42590719397481
H         3.41377972103973    6.37903285498430   -0.53343790922699
H         2.79978453352744    5.79581931335930   -2.08093020708870
C         3.56957003794959    7.80335470273306   -2.15097011297853
H         3.04216830752065    8.07871277014250   -3.06487125731500
H         3.64987243359381    8.68239331682565   -1.50980177086072
C         4.98667214887036    7.37301802137236   -2.51871831294559
H         4.96294440584333    6.41854892161114   -3.06851182875696
H         5.45501720298538    8.12845790546001   -3.17168508773748
C         7.03499149561695    6.74365535558921   -1.56257928293541
H         7.51678485549105    6.66968096180449   -0.58972504356568
H         7.61181706659552    7.42182221399469   -2.20596886347923
H         7.01082643404146    5.75236889773469   -2.03392140427229
C         0.35059248543068    7.86715664024148   -2.28193143931964
H         0.76239620547369    7.40026885996558   -3.18135657178982
H        -0.71840300568369    7.63361381682089   -2.24689434191634
C         0.55480955585877    9.37957120523776   -2.36662447145804
H        -0.16857805500065    9.90218065195544   -1.73962415233084
H         1.55788857660001    9.65860008587119   -2.04624544678658
C         0.37028585703321    9.85400834141649   -3.80507673670862
H        -0.60302601538415    9.51658379069652   -4.19463424240858
H         0.39172160334603   10.95505940530664   -3.84912562246235
C         1.31271236629220    9.67911739406075   -5.94759934779881
H         2.15849682332827    9.22081696669863   -6.45671190959226
H         1.35267538588893   10.76807934761898   -6.08032908021829
H         0.37654232125906    9.31022279772169   -6.38702109083450
Cl       -2.05093605173997    5.83808089875900   -1.03720733272495
P         0.28669221379618    3.75703127242424   -1.78762188698004
P        -1.12249568537778    3.33115252197594    0.86739557971595
O         1.83662277116955    4.95216395037617   -5.86898143615385
O         3.67862093347748    1.12236441788090   -3.32692185214899
O        -5.74189369671075    3.06596810683868    1.33572730886280
O        -1.41549472090565    0.97061505248965    4.59578924045096
C        -1.19736916521948    2.66017094396724   -1.81204530267473
H        -1.11192183341595    1.90331179266240   -2.59781364201240
H        -2.05345103268025    3.30928519080055   -2.02660983785416
C        -1.34760055569014    2.02266608176856   -0.43575184864866
H        -2.33002871648749    1.55662117005564   -0.32305606878288
H        -0.57704489035850    1.26051755011608   -0.29555275719067
C         0.29072126208588    4.44883631104402   -3.48623982878624
H         1.12560699723220    5.15510630762694   -3.53604310068353
H        -0.63747021039809    5.02821055253395   -3.55730344376602
C         0.41387461892379    3.47125717035788   -4.65107161270316
H        -0.48310074336329    2.85861305010983   -4.74536836152892
H         1.27587971518366    2.81846572768141   -4.51039889156211
C         0.61636076297306    4.24775435836740   -5.94949549596780
H        -0.21427634546038    4.95581432490042   -6.10277975668065
H         0.63803974807300    3.55804172049614   -6.80878789797240
C         2.08178871566882    5.76111063579354   -6.98535354253105
H         3.03383069389935    6.25791620855486   -6.80854118444901
H         2.14509583490675    5.16584360109155   -7.90580406094789
H         1.29437590753675    6.51581884985253   -7.11100592087387
C         1.61639614296197    2.48590192720558   -1.76686029148982
H         1.36318809462949    1.70250901634869   -2.48781741834914
H         1.61125727445229    2.06019314215028   -0.75724499712663
C         3.00762465570078    3.03620175699729   -2.05861620760748
H         3.00364169630279    3.60200636698944   -2.99242899886334
H         3.31710120848396    3.68434658965280   -1.23782191592205
C         4.01621072186947    1.90235280414333   -2.19671406021355
H         4.01010284422484    1.27368856444100   -1.29250000741808
H         5.03190646082572    2.31107983419096   -2.31760257887784
C         4.55502869529834    0.05030830902808   -3.53457558602164
H         4.20736639729945   -0.47395805199399   -4.42292669917643
H         5.58316104085753    0.39973800718913   -3.69664468662429
H         4.55340269576107   -0.63879959919478   -2.67956254968412
C        -2.84971977521311    3.62533077339424    1.42560335563683
H        -3.41333342713298    3.91749152552702    0.53307667900952
H        -2.79956588051504    4.50080086686186    2.08056874162159
C        -3.56955535725627    2.49341481549262    2.15066000348324
H        -3.04231637589608    2.21802838228791    3.06464046842625
H        -3.64986026157437    1.61435379764953    1.50953056677320
C        -4.98669698106079    2.92381684444434    2.51822730171902
H        -4.96294917102973    3.87829722058774    3.06799557461197
H        -5.45525539183893    2.16845099804675    3.17113916277666
C        -7.03472465328042    3.55357523290403    1.56172985846734
H        -7.51635439034854    3.62758257072121    0.58879736816757
H        -7.61180795726687    2.87559248412536    2.20508194870162
H        -7.01040358971254    4.54489570161528    2.03299445318962
C        -0.35058475880461    2.42957470445487    2.28205034844337
H        -0.76249540583958    2.89657567831561    3.18138294103202
H         0.71842073869902    2.66310597402648    2.24709551618336
C        -0.55485891111893    0.91715167099967    2.36689311338706
H         0.16870769015424    0.39441722058839    1.74019990694697
H        -1.55783159667622    0.63813096586858    2.04619350999191
C        -0.37097025434579    0.44280013892669    3.80546298033039
H         0.60218381382034    0.78022901777584    4.19539304720271
H        -0.39241832752894   -0.65824756832902    3.84956910295483
C        -1.31437156734214    0.61764777161161    5.94759085054356
H        -2.16037235331928    1.07596502405150    6.45632958955485
H        -1.35445291603385   -0.47131786299333    6.08024231323837
H        -0.37839124992208    0.98646224656947    6.38747726276457

