21
CSD_code = YEWNUK | q = 0 | S = 0 | Stoichiometry = C6H7N2O5Re | MND = 6
Re        0.62127639131248    2.70516113728168    6.81909745694684
N         0.97095973075002    1.55767893103682    4.92380950985903
H         0.32534440048086    0.80105425039861    4.68636375702440
H         0.99864569220916    2.18493455839948    4.11647741888073
N         1.84458273140154    0.89517990865362    7.54277003578844
H         2.67397187597077    1.34518010111492    7.93886043056542
H         1.46308309650056    0.29310902182783    8.27121257795261
O         0.81477603166961    4.23588157823908    9.49759681564155
O        -0.62908660109022    5.16085844298148    5.42341842535100
O        -2.09557140287546    1.40423733492538    7.49659303834764
O         2.64091244902299    3.15448229354226    6.20865780463145
O         4.42055829423174    2.21471120508112    5.25487750500449
C         0.69651869739958    3.67305495037231    8.51020698873959
C        -0.19831537400318    4.25106479969997    5.96445895750968
C        -1.10327846653759    1.93342197035267    7.26387716173689
C         3.24834453580333    2.26078606934767    5.56142582899478
C         2.32291265286684    1.02802561529257    5.16004868070047
H         2.74352621100797    0.51036202336556    4.29005760970115
C         2.25674959435092    0.09646297091846    6.37370592065951
H         3.23231485842774   -0.37902565732462    6.52340038971825
H         1.50817460110028   -0.68842150550682    6.20478368624608

