144
CSD_code = YEWQUN | q = 0 | S = 0 | Stoichiometry = C53H83O4P3W | MND = 9
W        -0.45694264514992    1.82567631286166    4.24526124762353
H        -0.58076978291356    2.59832283296066    2.58540333888574
H         0.81040715415018    3.11060318574459    4.61403254654837
H        -1.58292968873875    3.16193257796307    4.73944769995632
H        -2.74257045768987    0.98266399805985    6.02603363433080
P        -3.16856377411726    1.69559777900935    2.78663791494902
P         2.14492102862411    1.62029726201549    2.73661997570668
P        -0.03322075586881    2.70422864921582    7.16723302662218
O        -0.66546522403681    0.13614891252594    3.13162032392806
O         0.83187541976782    0.57198549495582    5.25155721141344
O         2.92958911820420   -0.95580645952683    4.20855643604239
H         2.22901255177764   -0.41500281243694    4.62993485058588
O         1.32499824694516   -1.47607243765945    2.23557305818420
H         0.52799755311207   -0.93846601771170    2.42365973043819
C        -1.84736223800188    0.57839924254706    5.50866325545189
C         2.70964599860026   -0.89104011080973    7.03212856967631
H         3.20576623515447   -0.92679569938516    8.00479318746548
H         3.08146746868929   -0.02139037942208    6.48542286880035
C         3.36407075987495   -3.33044857586186    2.67176970341073
H         4.12377682583400   -4.03943224242970    2.33667405932050
H         3.61600248404841   -2.33377703415926    2.31384818744907
C        -1.29512085609856   -2.08668314774523    1.28432131593928
H        -2.02415403215949   -2.44294963075589    0.55271387536029
H        -0.85300339706320   -1.16013199654232    0.90634622375258
C        -1.62618149320921   -0.76341118947191    3.43689068294787
C        -2.33358428504432   -0.56590935453469    4.63579291579063
C        -3.36052401905105   -1.42641120779095    4.98196905994160
H        -3.89101723349391   -1.24282409178920    5.90439853000332
C        -3.72639652352593   -2.49831956105185    4.17114101919877
C        -3.02340852800135   -2.67059679884480    2.98947294614747
H        -3.26970328131433   -3.48002412079027    2.32177006887992
C        -1.99386461796112   -1.82298616991210    2.59760975681735
C        -4.86297975538595   -3.41360685050894    4.60206601618191
C        -4.52045320425879   -4.02645756987894    5.96689989917815
H        -5.30386763067169   -4.71377611412906    6.28048109701037
H        -4.41528085925256   -3.26005017647952    6.72858258372224
H        -3.58221183430869   -4.57336670825692    5.90630923110849
C        -5.10468130236447   -4.55911739420970    3.61533474665491
H        -5.38992659284921   -4.18071963026840    2.63634345690200
H        -5.91408230791098   -5.18870061535734    3.98034983304242
H        -4.21584222883958   -5.17720460172378    3.51418011735752
C        -6.15735314049999   -2.59498251251411    4.71190042053429
H        -6.41898928767614   -2.17077091084756    3.74431145239191
H        -6.04934973249490   -1.78034992686344    5.42262867519718
H        -6.97722499534282   -3.23004439619532    5.04173884200313
C         0.38436930012906   -0.12045027091712    6.32341209024434
C         1.21666034837650   -0.78685576874860    7.23204210864818
C         0.65079008679046   -1.41697271382778    8.33494132709489
H         1.32517764431134   -1.91936831206425    9.00887779665519
C        -0.71006035628450   -1.40484191778192    8.59339471299396
C        -1.52221257742656   -0.73144549398355    7.68456665350790
H        -2.58840614173365   -0.67964032244414    7.84866320203074
C        -1.00136971828678   -0.09872030800698    6.56967550695825
C        -1.33114248583807   -2.07438911502494    9.81054173088702
C        -2.42302451490619   -3.04994375506685    9.35009196025112
H        -2.82795133576862   -3.59267870503907   10.20209652841060
H        -2.01168409404799   -3.76784370905395    8.64423561319662
H        -3.24127220134038   -2.52615151399684    8.86510989207975
C        -0.31007001351571   -2.86472982719570   10.63334124920292
H        -0.81144301687658   -3.34538413321245   11.47138284885613
H         0.46150697058235   -2.21241859709852   11.03597116915401
H         0.15518371821738   -3.63939404201485   10.02837999857246
C        -1.94982779316739   -0.99745452232257   10.71352310772503
H        -2.43280262702410   -1.45832776086061   11.57297154872352
H        -2.69204863610197   -0.41419620425662   10.17505424460680
H        -1.17960259770272   -0.31885024696812   11.07531271077517
C         3.06417918392018   -2.13443709017900    4.87816675275149
C         3.31544499264238   -3.31514363914813    4.17976746361918
C         3.46792847421005   -4.50099203938455    4.88357803308031
H         3.64308959824252   -5.39598133315300    4.30937651433148
C         3.39318506020420   -4.55651797147019    6.26690202824719
C         3.17057308621450   -3.36159149023350    6.94194096384409
H         3.12368372835238   -3.35189187417740    8.02072692171455
C         3.00815445030495   -2.16222982424111    6.27354607064908
C         3.54010692459729   -5.84770377316516    7.05794707002972
C         3.71940832542421   -7.07237071136210    6.15685349683552
H         2.86584119529091   -7.19359342604219    5.49389518909298
H         3.80052542399071   -7.96769484322860    6.77071150466741
H         4.62602623213619   -6.99055466181938    5.56189271725745
C         4.76733152618948   -5.74033844964609    7.97374627107511
H         4.66713586217987   -4.91227895469999    8.67008202326547
H         5.66483658693759   -5.57855585686664    7.38035282654039
H         4.89182065522104   -6.65675540585099    8.54755443978450
C         2.27759598055381   -6.06261771250109    7.90491250822515
H         1.39911382769927   -6.09699000706983    7.26394902697314
H         2.14180511055402   -5.25931561961284    8.62355392538330
H         2.34552631985407   -7.00084760777858    8.45248409676313
C         1.02223907161668   -2.76323793853120    1.95722994112558
C        -0.22681488184009   -3.13859721642373    1.46641271216386
C        -0.48057907004845   -4.47151394331795    1.17932090312367
H        -1.45985889954293   -4.72547197529527    0.80613551428624
C         0.48595681110054   -5.45179225448226    1.34641319262364
C         1.73348483073205   -5.04847563063174    1.81384982235301
H         2.51870902530864   -5.77807154583945    1.94627467282614
C         2.01831363420719   -3.73157448192241    2.12053302504108
C         0.24281741461336   -6.92146967362750    1.03596761130819
C         0.50427191474828   -7.75342704490771    2.29957149002635
H         1.53506117545666   -7.65859181030309    2.62877004706184
H         0.30450794278828   -8.80587720306400    2.10671512643285
H        -0.14275064011477   -7.41966830558565    3.10816984643767
C        -1.19089653105709   -7.19820123117177    0.57495715494784
H        -1.41615219325362   -6.66319743651015   -0.34468950464314
H        -1.90803692836438   -6.91067054475493    1.34037488953318
H        -1.31231757216557   -8.26260863169139    0.38198972538100
C         1.19793533959876   -7.36286833568313   -0.08184948250637
H         1.02718348873095   -6.76856160132803   -0.97711997274158
H         1.03564739502854   -8.41116964297573   -0.32560429489661
H         2.23537638821795   -7.23774375175198    0.21526602105500
C        -3.65342057517852    3.45788419470569    2.48427371211093
H        -4.45246957360674    3.52690672968563    1.74693083390892
H        -2.77938644748133    4.00830581510365    2.14080430339133
H        -3.98621430394435    3.89635979061404    3.42286545832790
C        -3.04556207785755    1.15350058967327    1.02285281052567
H        -3.87383402650173    1.55257432322032    0.43868822390734
H        -3.06676490078012    0.06721762544561    0.98526601854847
H        -2.10111045189529    1.50602918206533    0.61256705751678
C        -4.86468266172826    1.03366031915782    3.13356200432819
H        -5.57995960141951    1.36973673106325    2.38578892727714
H        -5.18487096924505    1.37492267342317    4.11524043101765
H        -4.82768477361738   -0.05276916834412    3.14239770491652
C         2.10381488514331    3.24983874661660    1.83833382940195
H         3.09997236329585    3.51348531553613    1.48356294176879
H         1.73060536468747    4.02982237709371    2.49913551867073
H         1.43241422752536    3.17420914498946    0.98509465340724
C         3.62006824689886    1.98924494137670    3.79765386814232
H         4.37590389541966    2.51908766789187    3.22017516820216
H         4.03980959575191    1.05526300607926    4.15859410989268
H         3.31630386109744    2.60262106841621    4.64316118723742
C         3.03094942554462    0.70102458817643    1.40193764797883
H         3.88156378798760    1.27434356806249    1.03870314201679
H         2.34931670864490    0.50281333142055    0.57897879131545
H         3.36807741187763   -0.24674549336465    1.80298454600327
C        -0.83064887007651    2.35750746564598    8.80324454598238
H        -0.49213829391982    3.06021253626007    9.56179446038120
H        -0.58961306957655    1.34324543766920    9.11014942555723
H        -1.90999570254931    2.43778932445621    8.69639066361026
C        -0.27539441098179    4.54143425901545    7.17309621495169
H         0.11096539970381    4.98639904840780    8.08940864909424
H        -1.33906470471827    4.75435611317890    7.08610966363316
H         0.22997880332556    4.96903455510010    6.30916584679312
C         1.72552164612381    2.67162221482482    7.73874748718187
H         1.86701981912629    3.34429894243348    8.58372610464847
H         2.37017925968841    2.97587055826097    6.91673310364690
H         1.98316535485021    1.65791240583812    8.03574306643706

