91
CSD_code = YEWSEB | q = 0 | S = 0 | Stoichiometry = C42H43ClFeP4 | MND = 6
Fe       15.75805126995188    4.17819137656642    7.12014066890557
H        15.68221268350814    5.57869615427761    7.51957324833345
Cl       16.25161360958653    3.65789775942920    9.18478547957608
P        15.27559935589730    4.94992408187453    5.25873397006830
P        13.68267059553222    4.31949234676689    7.63784531738827
P        15.72051999421290    2.21091805483894    6.25822739099685
P        17.76806742877229    4.85553483522000    6.79850993118186
C        13.68611125271462    5.86103240306737    5.35667492879698
H        13.89653845196049    6.77318467698454    5.92739129631795
H        13.28270516183084    6.12764736084280    4.37319119123190
C        12.75316514748124    4.95151876924309    6.15078162586879
H        12.48135980731409    4.08900291224981    5.53442466329099
H        11.83724929259541    5.46802541711368    6.45253373180863
C        15.02377812777064    3.68859707529118    3.93356652802237
H        14.16920091916092    3.95828615845104    3.30302563019627
H        15.91954255560569    3.68120597376835    3.30443038588809
C        14.82358870980248    2.33732970243343    4.61666604260127
H        15.13298053827401    1.51606069351482    3.96286048162155
H        13.76618061787666    2.20304933656998    4.87022848171168
C        16.50652441296117    6.16568830315835    4.63739295705742
H        16.48756280061740    6.23805007564086    3.54382389173513
H        16.19511110296175    7.13008368565253    5.05397735337630
C        17.88609076258106    5.76316189347275    5.16576535413759
H        18.54020116623146    6.63487430313658    5.26957893195424
H        18.36261920517758    5.06589811425790    4.46935480963993
C        13.19299471614468    5.55165441947600    8.89073053273441
C        14.12434120731899    6.31651447313637    9.57757906128394
H        15.17852985385790    6.17453184517290    9.39018169473619
C        13.70600891354579    7.24944591662831   10.51109795108734
H        14.43971250786158    7.83734322849759   11.04326728982910
C        12.35709519515483    7.42345881779713   10.76456580841776
H        12.03054983430721    8.15297447787973   11.49167845882053
C        11.42160429817539    6.65161455489868   10.09181342020049
H        10.36773390614606    6.77698831702093   10.29666666022539
C        11.83540830329556    5.71656662115379    9.16411825495207
H        11.10598242094201    5.09759357250257    8.65616964418443
C        12.68102830518353    2.92606346359686    8.23693962426424
C        11.85831264152386    2.12223358182034    7.45792006079959
H        11.71576490269550    2.32781777790018    6.40592797542670
C        11.19638605044885    1.04999441773145    8.02910365247757
H        10.55089628308500    0.43386407903560    7.41907940412693
C        11.35761376540038    0.76466347182136    9.37347223020067
H        10.83366876263553   -0.07143273677388    9.81314705770928
C        12.19876572505459    1.54600152174584   10.14976087352241
H        12.33797123484562    1.31768162388716   11.19621823962336
C        12.86316285726010    2.61542408954291    9.58467282901995
H        13.54226904720253    3.21927949550358   10.17283616631710
C        14.88131929177248    0.77352425440282    6.99865591301767
C        14.17804883354330   -0.18394616143624    6.27310207835447
H        14.06237748488640   -0.09428745400988    5.20306317538474
C        13.62580772263212   -1.27376361824055    6.92044452565671
H        13.07685730730803   -2.01113623131895    6.35138728440996
C        13.78028252054191   -1.42891472593572    8.28793097454676
H        13.34915772340617   -2.28586202581852    8.78520261696364
C        14.48924982185487   -0.48628866268268    9.01211572197094
H        14.61684983612888   -0.60347247670853   10.07814885691405
C        15.03546214766779    0.61172594361713    8.37327101116705
H        15.57723577030477    1.36064060294286    8.93551031343425
C        17.25168222981616    1.38455153896557    5.70212017099414
C        17.70350923995403    0.17824952414131    6.22439529750605
H        17.12688241218489   -0.33306683968630    6.98147101285653
C        18.89482473942057   -0.36538524923725    5.77773058328822
H        19.23930701137802   -1.30408135885417    6.18735903757066
C        19.64624337420474    0.28392050968497    4.81347568343002
H        20.57527772761830   -0.14560027273372    4.46864923118515
C        19.20792274895369    1.49216774489996    4.29709689293295
H        19.79605189537458    2.00849104944099    3.55137158955254
C        18.02379273739278    2.03926816345311    4.74783263479883
H        17.68237212043370    2.99326880769391    4.36785728987424
C        19.28633545661272    3.85235898986983    6.82137646381822
C        19.26167400038464    2.71296781072117    7.61968366251924
H        18.35096164898788    2.46403567692237    8.15092710184416
C        20.38671682516942    1.91836804200120    7.73058517885560
H        20.36347446930591    1.03510751802160    8.35179318153867
C        21.54043337279066    2.25581110162693    7.04261139198505
H        22.41955062937039    1.63262666379031    7.12113949238165
C        21.57239167863091    3.39722482612435    6.25867300998557
H        22.47757578117969    3.66540589690069    5.73205962347007
C        20.45261055318655    4.20181155987063    6.15130648426047
H        20.49217843651273    5.10008966890422    5.55151375247601
C        18.24783692102655    6.12112785029900    8.01455702455109
C        18.92649158702529    5.74701554126851    9.16935143063630
H        19.24311460903222    4.72192890552363    9.29655539834036
C        19.17357251932941    6.67999775315823   10.16022011256035
H        19.69554308314450    6.38090772510045   11.05751535638718
C        18.74455748014346    7.98770077137630   10.01060181946664
H        18.93660018618412    8.71433500717073   10.78692208410664
C        18.05375401550686    8.36103894340842    8.86892430807807
H        17.70349464529782    9.37760920966561    8.75507561698477
C        17.79837147719444    7.43096584188389    7.87969471040338
H        17.22680022476922    7.71813313999122    7.00738971783033

