32
CSD_code = YEWXUU | q = 0 | S = 0 | Stoichiometry = C11H13CrNO5S | MND = 6
Cr        4.97969946291944    5.90873809997639    8.36756626189209
S         5.24101205796430    8.11623460998394    6.95956204302743
O         3.46279557918020    7.68644445207431   10.38652074752622
O         7.30177439747405    6.29349532901015   10.22077717108833
O         4.58781768161617    3.54584008655984   10.14894389975685
O         6.30959251948879    3.82044787432019    6.64344700201561
O         2.10992983359128    5.63098151633549    7.55638463028231
N         3.02854414877459   10.24137577640163    9.56140914627529
H         2.86284921560263    9.52200404348041   10.25082835228700
C         4.14741955873617    7.46650884459808    9.24321987230229
C         4.26677912313589    8.59876675234994    8.39032018414019
C         3.72098992064094    9.86409734195500    8.46971430378880
C         2.33811957556485   11.49372052159917    9.71115715733413
H         3.00556043040947   12.33184852732211    9.50393561206182
H         1.98593436261876   11.57847247607988   10.73624329633981
H         1.47474116993100   11.56581019611750    9.04125271926021
C         3.88442243118517   10.87332509318055    7.37944783100629
H         2.91295121338083   11.26680606969077    7.08508789024278
H         4.35588488212231   10.42171476048031    6.51197657419258
H         4.49612160172602   11.70806703183148    7.72202625784167
C         3.30071843243798    6.58711083379954   11.26469610329514
H         2.72048420083126    5.79418328922040   10.78672888541325
H         2.76716103544113    6.96638862291618   12.13561929990888
H         4.27190146543852    6.18715993891177   11.56603698981610
C         6.87534220426165    8.78738951434581    7.43793659060775
H         6.87336353993179    9.86568750244872    7.30353653278555
H         7.60912281826413    8.33131621827429    6.78148438194607
H         7.08310146079301    8.52941999917800    8.47158280001235
C         6.50273438301853    6.17644952023582    9.39383299950342
C         4.70668928540300    4.48630759695655    9.47972495522527
C         5.80965342005222    4.66124524480008    7.25212163565444
C         3.24998858805950    5.71674231556296    7.70917787316810

