32
CSD_code = YEWYAB | q = 0 | S = 0 | Stoichiometry = C11H13NO5SW | MND = 6
W         2.72445634632525    2.58004894594823    0.05288511813835
S         4.85989504883165    1.53606049981156    1.25034034824790
O         1.62202392303032    2.67530362977854    3.07356343408224
O         1.49738493055284   -0.30230100127476    0.00553318513945
O         0.00840932013462    3.79184804795160   -0.86005756386908
O         3.57479445072143    2.55346686137649   -2.96981677889235
O         3.69337280082276    5.53694422810219    0.40438274158128
N         3.23901598611288    1.52309507638618    4.93232777641228
H         2.35790355336521    1.97032065110245    4.71953494769478
C         2.55048267779723    2.39931559190058    2.14792944506134
C         3.73226244967545    1.77502756658626    2.63446125248244
C         4.05833263639574    1.30526299396222    3.89210500301862
C         3.44041193901730    1.02407500949724    6.26620185411970
H         3.32582547557792   -0.06371841417027    6.31318542208105
H         2.70324180834091    1.47662916118695    6.92471841471062
H         4.43628105284878    1.28171487387257    6.63068660387473
C         5.32394294673700    0.55744205237477    4.15694633932281
H         5.99067590665931    1.15047246205333    4.78320885944841
H         5.82988635340244    0.32396694499244    3.22497413345480
H         5.10786055833204   -0.37183596632274    4.68122560813672
C         0.42191445870598    3.27091988123445    2.60931663262182
H         0.63541223740005    4.21065338993366    2.09454947755295
H        -0.19358881475380    3.45576918909432    3.48891674724735
H        -0.09641130402994    2.59850883726630    1.92173041465943
C         5.99151718870147    2.94776559402368    1.50542400300027
H         5.42073375762403    3.81532527720703    1.82171959451914
H         6.47783293018888    3.14296151509659    0.55473300133275
H         6.73297894311780    2.68349599832551    2.25536165747996
C         1.98166578584987    0.73246768332938   -0.03369199730796
C         1.00984389731373    3.34143924142993   -0.51286182626874
C         3.24430617546487    2.56730057012618   -1.87505565694963
C         3.39513457973847    4.44125360781564    0.24932180788789

