107
CSD_code = YEWYEF | q = 1 | S = 0 | Stoichiometry = C52H47O3P4Pd(1+) | MND = 5
C         4.82943112727357   10.93108851891463    0.75029771728563
C         4.60294818524119   12.13302023097377    1.40728148826962
H         4.40664836440872   12.13942626633050    2.47371582420651
C         4.62058249512244   13.33964768933010    0.72037660898131
H         4.44061713418285   14.25886095886833    1.25695524583596
C         4.86483239027449   13.36306172020011   -0.64017387564377
H         4.88057138889095   14.29849752591399   -1.17685918539251
C         5.08936450734261   12.17855103713553   -1.32075482310730
H         5.28063293751589   12.16544293026878   -2.38223125121269
C         5.06550459305900   10.98057881008885   -0.62546182876772
C         3.53868180628852    7.05016162959969   -1.78347261346221
C         2.49103433990601    7.87872024786489   -1.42253469663325
H         2.69649749256244    8.80296174934279   -0.89387667076985
C         1.19323396224732    7.52794133157775   -1.76004597498137
H         0.37891876312108    8.18074928032910   -1.48324998793573
C         0.94799651417152    6.35453837735208   -2.45128910712677
H        -0.06272096666392    6.08515115436522   -2.71499946520431
C         2.00359646447886    5.53184515602528   -2.81345900208466
H         1.81613957407951    4.62077515198803   -3.36015293726090
C         3.30190509863593    5.87391472359789   -2.48275869926762
H         4.13847658751902    5.25230769956772   -2.75993040413929
C         7.73105542213582    7.63801270065289   -1.35771368770469
C         7.51741478463351    7.89251055021860   -2.70012465768634
H         6.64412528700224    8.44531093403350   -3.00964648805996
C         8.43778076911088    7.43815692291941   -3.63051033433762
H         8.27255669797914    7.63507185807788   -4.67857742827025
C         9.56232587357885    6.74194924381290   -3.22314479338028
H        10.27535721671820    6.39138162519591   -3.95285803799749
C         9.77382249090565    6.50232938534621   -1.87547178132393
H        10.65332526264094    5.96745379437236   -1.55086739774533
C         8.85946196523344    6.94822320776725   -0.93819414332989
H         9.01035970945039    6.77637728070765    0.11635330229891
C         0.71092414830660    9.94838758428718    0.80531319378000
C         1.15096501971806   10.87959752723798   -0.13014859230253
H         2.20531900074920   11.13044210863428   -0.17751279891489
C         0.24912410249549   11.48341824571557   -0.98789441138598
H         0.59554739135738   12.20375130743327   -1.71339676163783
C        -1.09574041485884   11.16167035975200   -0.91133347058171
H        -1.80160788495196   11.62795236343955   -1.58147235840390
C        -1.53974819643396   10.24767004049470    0.03226115390532
H        -2.59054325394102   10.00838712670797    0.09849570683883
C        -0.64311816698303    9.64457800681603    0.89486706505869
H        -0.99845521050903    8.94738399843151    1.63944951635279
C         1.32929387782068    9.90330252601979    3.49301141704577
C         0.68828574175608    9.19449183697072    4.50051332931696
H         0.50718427749408    8.13312874521407    4.41091127820654
C         0.25634468246458    9.85491046830125    5.63935644508828
H        -0.24476181599418    9.29968401817561    6.41876435987482
C         0.45525060279936   11.21755049147460    5.77886626865751
H         0.10844480439931   11.72404995682699    6.66654896213508
C         1.09574728929036   11.92964940392347    4.77619763003528
H         1.25205546769106   12.99266528544687    4.88017725071895
C         1.53568641529569   11.27392690886501    3.64432918049441
H         2.03878345381104   11.81575181620095    2.85270602774966
C         1.48715181439904    7.42491289257013    1.95764180957461
H         0.45950267979577    7.30378364770682    2.31108831440947
H         1.53293026120577    7.07909686550502    0.91849444398682
C         2.45583686776594    6.62351469636150    2.82799187313622
H         2.26492077892457    5.54805660010650    2.75333751634081
H         2.33469813754731    6.91332771902848    3.87678857931702
C         4.82260127449667    5.55984354841921    1.43038169428193
C         3.97751757011684    4.72743275257970    0.70487560163921
H         2.90391233130395    4.82541158726723    0.78248220941292
C         4.51247999633894    3.76856790021863   -0.13783084369415
H         3.85165542555019    3.12023900293567   -0.69332348709542
C         5.88440331994709    3.64708728497769   -0.27536743380193
H         6.29686665309480    2.90099313490628   -0.93708965670991
C         6.73077881655665    4.49271549136841    0.42583397394960
H         7.79972810326250    4.40525945307042    0.30484677072283
C         6.20389639402225    5.45281384496913    1.26636909641671
H         6.85803927146519    6.13590079906603    1.79588873462485
C         5.02125951022681    6.82430189393871    4.06575026389286
H         4.61650528287396    5.96123601912636    4.60529517276102
H         6.09615668390832    6.67235566677116    3.92062990037736
C         4.77648180904487    8.13036351983136    4.81828917522106
H         5.31539709972752    8.14539749803780    5.77068319019366
H         3.70779839469765    8.25578656244893    5.02273563065811
C         5.04669637269590   10.99939592442730    4.86808249258606
C         4.06389151332004   11.04137305842877    5.84984269277228
H         3.42143425370760   10.19166698905692    6.02550757417701
C         3.90447230633111   12.18367949974497    6.61512066864693
H         3.14798831408276   12.20644724623032    7.38482239801307
C         4.70652864312917   13.29093074904811    6.39676322584044
H         4.57617592027887   14.17857200939198    6.99653392754856
C         5.67625296256931   13.25995537078265    5.40609181543191
H         6.30051579009679   14.12287186684614    5.23063864225905
C         5.84473679087826   12.12165144223573    4.64243676089529
H         6.60039651940620   12.08724295563044    3.86725363138659
C         7.12739621871699    9.37274393256110    3.87275470536787
C         7.79651003503577    9.45033538311648    5.09195092097253
H         7.24778255906250    9.67074470612330    5.99757578718352
C         9.16481304585949    9.26197163754660    5.13535926460560
H         9.68496630688732    9.32283644677277    6.07931110100329
C         9.87093564937783    9.00027941881540    3.97014950428943
H        10.93989377008748    8.85695943948197    4.01136152371563
C         9.20917039329681    8.93286376748217    2.75541668172233
H         9.76033606809517    8.74397598197476    1.84604567443620
C         7.83858437437753    9.12040375740984    2.70532409719897
H         7.30875869677277    9.08407574417799    1.75416317915376
O         5.26879143207877    9.80834116971312   -1.35067036221149
O         4.85090493061356    7.34874995109452   -1.48474884944219
O         6.87221925258951    8.07933526675992   -0.35277188437095
P         5.33404061520271    8.46673558364549   -0.45356223943453
P         1.96162380222129    9.22572479258286    1.91971982682709
P         4.22550040717665    6.96323901267885    2.40529990488968
P         5.31990895633435    9.57253454821432    3.78162308181891
Pd        4.59459605261585    9.08619414774065    1.58508041703724

