117
CSD_code = YEXCEM | q = 0 | S = 0 | Stoichiometry = C56H56P4Pt | MND = 4
Pt        5.20013907394979    5.57570149329128   14.32195573293298
P         5.00637546471164    4.09296259316360   12.44658958135486
P         7.19457112074442    6.74445357745572   13.87564635373722
C         6.47691851242238    3.45721065749678   11.50281163115296
H         7.17362895832642    3.07591331208115   12.25669991804702
H         6.15545372671849    2.61611633348211   10.88138396056988
C         7.15569947370473    4.49687355550753   10.60934813878486
H         8.13743703369048    4.11820477317035   10.30682301180280
H         6.55546953280930    4.62077272882674    9.70346581263437
C         7.30332540596605    5.87186338143561   11.25653887489367
H         6.29195308884064    6.22096821537073   11.49729498345365
H         7.71749253470480    6.56905352399958   10.52460515320325
C         8.15163888971333    5.88997264149440   12.53031794518889
H         9.11034287557893    6.39067896453844   12.37224454657676
H         8.34967713445871    4.87220343109092   12.87030216436318
C         3.93486683374599    4.55348392981975   11.03373896242636
C         3.60277259163052    5.88742899772899   10.84499692682330
H         3.96586213546235    6.62376988440058   11.55031570802594
C         2.80596559722497    6.27156388927232    9.78260250279766
H         2.55695518669973    7.31335761516360    9.64449919231496
C         2.32268877686716    5.31733508790863    8.90457391627292
H         1.69353866566770    5.61103169861874    8.07678666468457
C         2.64285809065740    3.98160503985433    9.09042404364037
H         2.26182425083137    3.23527005488569    8.40756350667804
C         3.44761158448484    3.59927256696798   10.14685360759133
H         3.68947343338936    2.55477934764965   10.29109815096415
C         4.17876291157305    2.52689208480807   12.88333381785582
C         2.87292962997545    2.66955224196356   13.34973319831907
H         2.45916269325908    3.66911470852705   13.40249021242562
C         2.12880335200334    1.57283860519184   13.72946605926921
H         1.11479576592480    1.69743670344022   14.08455955358657
C         2.68502141837818    0.30401408580026   13.65038266705705
H         2.10635029514338   -0.56106942589820   13.94078739774461
C         3.98501887660109    0.15333776934736   13.20361487516905
H         4.42394053975435   -0.83265148095978   13.14524144697923
C         4.73586047843357    1.25627529261352   12.82998028824831
H         5.75575276824111    1.11171043467645   12.50651087606273
C         7.09462723558008    8.39739110599082   13.09021238057122
C         5.84513701099972    8.89307040247907   12.74842918517065
H         4.97088524250777    8.30094546553525   12.99894096412967
C         5.71849330046104   10.11574786238901   12.11558376141729
H         4.74021444834913   10.49388464190842   11.85423634679841
C         6.85056281760193   10.85501788553858   11.81912696838907
H         6.75995609647135   11.81224208498044   11.32619456497502
C         8.10359926827611   10.36732390625787   12.15750712915649
H         8.98691780686122   10.94607573323511   11.92675734090367
C         8.22849021787420    9.14411326623944   12.78851448862969
H         9.20776669072061    8.77230338502843   13.05844154783911
C         8.51001978902384    7.07440250477807   15.09787913772447
C         8.47560895164375    8.25400402390959   15.83975880563869
H         7.72609918004374    9.00117750652905   15.61426315072852
C         9.39762256238093    8.48314741325550   16.84187927272934
H         9.36808587444117    9.40942382123892   17.39885561914589
C        10.35808686021523    7.52853136600597   17.13612496775438
H        11.07610191128231    7.70463907322263   17.92368469547696
C        10.39114681460480    6.34653142109194   16.41654680549079
H        11.13594656802320    5.59683386723499   16.64320708995374
C         9.47501092182801    6.12097440056928   15.40623960307649
H         9.51873002769442    5.19759967905690   14.84680304099797
P         5.39390808425114    4.09296967882656   16.19732145898717
P         3.20570833814302    6.74445319081385   14.76825396244465
C         3.92337513468914    3.45722663590222   17.14112190289831
H         3.22666067106533    3.07591102925599   16.38724620612404
H         4.24485436917401    2.61614735320146   17.76256179505273
C         3.24459335030829    4.49689902822491   18.03457299221177
H         2.26285921684010    4.11822850382643   18.33710790031357
H         3.84482694446958    4.62081396926830   18.94045058619319
C         3.09695931198908    5.87187866062579   17.38736283995300
H         4.10832914664107    6.22098748889420   17.14660075688019
H         2.68278680732658    6.56907508235916   18.11928730758966
C         2.24864673989364    5.88996707845921   16.11358320730155
H         1.28993575925529    6.39066084297157   16.27165399200825
H         2.05062339025155    4.87219272918959   15.77360456677402
C         6.46544116251079    4.55350047779069   17.61015045215534
C         6.79750247097982    5.88745212711303   17.79890765985827
H         6.43437629787333    6.62379604531248   17.09361107607474
C         7.59432319978892    6.27159052877382   18.86129049900507
H         7.84330671616586    7.31338877220557   18.99940743732304
C         8.07765076642657    5.31735949437265   19.73928899639981
H         8.70681833483520    5.61105869997348   20.56706193066650
C         7.75751578869034    3.98162380099982   19.55342211517378
H         8.13859165519221    3.23528625436733   20.23625618673061
C         6.95274524664785    3.59928769545857   18.49700703520449
H         6.71090604296963    2.55479083332945   18.35275171291052
C         6.22150559078265    2.52689435548827   15.76056526769354
C         7.52733475382411    2.66954306909192   15.29414923664204
H         7.94110402049023    3.66910324320853   15.24137358544836
C         8.27145250995979    1.57282090431914   14.91442321071006
H         9.28545209433495    1.69741159888316   14.55930396908288
C         7.71523090769290    0.30399938399537   14.99353171638665
H         8.29389144876528   -0.56108897915290   14.70312133154563
C         6.41523758757750    0.15333445922719   15.44031600426436
H         5.97631203449648   -0.83265185227468   15.49870484266186
C         5.66440443938319    1.25628017015888   15.81394223588721
H         4.64451871461469    1.11172240836500   16.13743474789148
C         3.30565063399104    8.39739246557514   15.55368557715969
C         4.55514170716838    8.89308580843207   15.89544440559269
H         5.42939589126736    8.30097243555566   15.64491245787357
C         4.68178337179639   10.11576123260605   16.52829502179473
H         5.66006333565080   10.49391417113453   16.78961526731412
C         3.54971059549222   10.85501373347767   16.82478382721726
H         3.64031506678303   11.81223830862407   17.31771628946366
C         2.29667276306775   10.36730546168613   16.48642821495092
H         1.41335164384357   10.94604254262120   16.71720601503164
C         2.17178433396459    9.14409809978819   15.85541350265145
H         1.19250596817065    8.77227334192864   15.58551314140717
C         1.89024911492248    7.07441630319782   13.54603712864447
C         1.92466747371133    8.25401740202381   12.80415657312084
H         2.67418447221730    9.00118465731800   13.02965034100827
C         1.00265450623803    8.48316678168387   11.80203709764830
H         1.03218828758767    9.40944868346519   11.24506917694379
C         0.04218221551177    7.52855802818479   11.50779383713221
H        -0.67584363202633    7.70467785546071   10.72024652226508
C         0.00911399523797    6.34655930713869   12.22737391610686
H        -0.73569408319582    5.59686913866573   12.00071689740320
C         0.92525010945444    6.12099576727276   13.23767953973601
H         0.88153488202178    5.19761458052767   13.79710627493374

