60
CSD_code = YEXHAL | q = 1 | S = 0 | Stoichiometry = C24H26N3NiO6(1+) | MND = 6
C         5.38317208606824    3.55366078295933   11.65956693702949
C         5.90681224636534    4.38728757403340   12.78324199535347
C         7.22136436775894    4.26311151206809   13.21322091903578
H         7.85565618475826    3.53556647315872   12.73011500187710
C         7.68742799318308    5.06225984485100   14.24069364870586
H         8.70775063114601    4.96597946866726   14.57863141787402
C         6.84294649844027    5.98540798454914   14.83726336093565
H         7.20593699394996    6.60840123843954   15.64035078509291
C         5.53038174901953    6.11475996268165   14.41205655630811
H         4.87605706221357    6.83613544567453   14.87774471084738
C         5.05654265260873    5.31625825931656   13.38165389523260
C         3.64321229669556    5.47108489208872   12.91974121781144
C         1.42103310440742    4.97317732258034   13.46621871292558
H         1.16153909536512    6.03382869679281   13.49762418268750
H         0.89945848141958    4.43239320104637   14.25159296252747
H         1.15660832091908    4.57113145493427   12.48510218777831
C         4.92520044088506    5.46802374998868    9.36647623590074
H         4.25249413909938    5.91718884755068   10.08811129862893
C         6.08887152235208    6.12377614897679    9.00353764107177
H         6.30631085713185    7.09070344554741    9.42740414787539
C         6.95880191911730    5.51344834118684    8.11469308848366
H         7.88182234805374    5.99252570606640    7.82749330496799
C         6.61763355517934    4.26965298522391    7.61104550820606
H         7.25949022559769    3.75030413086204    6.91825311757799
C         5.43602204867235    3.67883656634001    8.02500534145381
H         5.15651444149329    2.70465393743043    7.65220813533857
C         1.56456184987497    5.91103356381495    9.38402128551405
H         1.84847500376387    5.90055642303091   10.42932578742085
C         0.84093700875069    6.97103601034143    8.86218682081516
H         0.53587122066591    7.77942034817516    9.50654410821195
C         0.52971379287811    6.97294149376400    7.51212812847396
H        -0.02946284724045    7.78536074094235    7.07411934511006
C         0.96247581719407    5.90991313285255    6.73439557875701
H         0.75423000423485    5.87136796801802    5.67726720944759
C         1.67756990679443    4.88929284531373    7.33640154181979
H         2.03688103753750    4.04751243255655    6.76084286691247
C         0.51465925355850    2.42182308151856    9.81289718282291
H         0.42738147267620    2.85366686859791    8.82479539490448
C        -0.57386669079212    1.78360240068290   10.38050459410128
H        -1.50029311454877    1.71753871417006    9.83303107366829
C        -0.45106374699162    1.23995398136646   11.65001262377786
H        -1.28090298537382    0.73509569786280   12.11899365973168
C         0.76621859269823    1.36808563110730   12.29684603227156
H         0.91806199917372    0.96928729399505   13.28671560746598
C         1.80568353129027    2.02424430396347   11.65741091995857
H         2.75462576271046    2.15793699486050   12.15905737851994
N         4.61347427423547    4.26314533129405    8.88979750458539
N         1.96885980419571    4.88347352509184    8.63661246878246
N         1.69232684756556    2.54345324486434   10.43304668121659
Ni        3.17187233250221    3.38305778604255    9.60226753144817
O         4.13668127970985    3.68196929087968   11.43650941964843
O         6.14043896552603    2.81463543728355   11.01787473035149
O         2.80676165908671    4.79809682570373   13.71463482215022
O         3.27266016578623    6.21647272972899   12.04055352102098
O         2.82790068494731    1.99917423508846    7.67568560416450
H         3.49032735326405    1.35260667094569    7.96239906417741
H         1.99838539972451    1.52040470143161    7.60338265673332
O         4.43090911008921    1.32388602366533    9.72288007312259
H         4.17569938543677    0.67102661593772   10.37909023582147
H         5.21888460717500    1.79856968210124   10.12562223558977

