38
CSD_code = YEXLIZ | q = 0 | S = 0 | Stoichiometry = C13H21Cl2NRu | MND = 9
Ru        0.01565715116553    2.95771368926332    7.92636876587507
Cl       -0.89706122522189    1.87193193531995    6.06619342915479
Cl       -1.73652576329146    2.06314999264709    9.20530506747603
N         0.76767365591717    0.97224470409656    8.25275975557910
H         0.97698496507139    0.82367458169657    9.24399752846143
H        -0.04232518450606    0.37494757739203    8.02637188722145
C         1.89566569447496    0.55949491951360    7.41756214980415
H         2.77831086176467    1.14143365652117    7.70027079846399
H         1.62718433250591    0.79366985587804    6.38192753582919
C         2.20659000977111   -0.93991564552251    7.53089400004385
H         1.27806004365243   -1.49411045352416    7.35456702582855
C         3.21958853199059   -1.34355696401772    6.45749672469784
H         4.14120226500222   -0.77382040601760    6.59865320333721
H         2.82186208700793   -1.10024211623236    5.47087136024486
C         3.52998409686466   -2.83533820454213    6.53726194734958
H         2.61902223317616   -3.40468342802451    6.34188827877223
H         4.26090255365232   -3.10081237606544    5.77148870767843
C         4.06592723153736   -3.19577689284772    7.91877611603924
H         5.00799561541359   -2.67019286190705    8.09149487663436
H         4.26597799651085   -4.26717674901680    7.97355935299507
C         3.05939478901128   -2.79986892516562    8.99369121658772
H         3.45402864430452   -3.04127663121237    9.98255947303726
H         2.13790420935946   -3.36895113596847    8.85365242778849
C         2.74678974336322   -1.30738821006728    8.91482571835584
H         3.65982260139454   -0.73826114390310    9.10860897340993
H         2.01930678465724   -1.05569586491154    9.69026088137165
C         1.78371156700605    4.06108767352249    8.77445246280916
H         2.63815347337769    3.72449551239441    9.35277989354709
C         0.63918106720181    4.53707841238634    9.43757016863738
H         0.59395640868087    4.54813742962702   10.51908431086711
C        -0.44524023022531    5.04034749107394    8.67739274713700
H        -1.32154956393105    5.42567825402994    9.18707351174833
C        -0.36799356763519    5.09672033166493    7.27680199263831
H        -1.17542068492743    5.53392012839292    6.70013749414217
C         0.80925094637792    4.64625182268361    6.61754349522379
H         0.88696709691601    4.73586810911217    5.54021547951014
C         1.88746916942668    4.15067412432747    7.35913942438058
H         2.80889039318205    3.87194780740251    6.86280181732156

