55
CSD_code = YEXVOM | q = 0 | S = 0 | Stoichiometry = C26H20N6O2Pt | MND = 4
Pt       -0.00009039754165   -0.00004881159862    0.00065081469165
O         1.25283248724473    1.02624423768004    2.37483251494196
N         1.21699180671623    0.06973975869166    1.56265462161768
N         1.70092386071607   -2.03234210707366    0.84388111431374
N         0.64333035240361   -1.88888808587608    0.13246261086003
C         2.02109133998995   -1.00764801363779    1.65210322281418
C         3.14254807318245   -1.18659715100462    2.57372483237956
C         3.69458161754501   -2.46224826504975    2.72173325878668
C         4.76903801721097   -2.66551571283157    3.56300931528085
C         5.31407988446317   -1.60367991669487    4.26855879855639
C         4.77557765266366   -0.33681103343453    4.12448651574356
C         3.69713891565307   -0.12311243042516    3.28568187793293
C         0.23585010870993   -2.97040242437301   -0.63574380338821
C        -1.13510263403391   -3.16934931892349   -0.81715154510334
C        -1.57700077464559   -4.23367803206687   -1.57627836434219
C        -0.66425494925333   -5.09435826905653   -2.16568786414900
C         0.69697433043911   -4.90667751290896   -1.97389827923702
C         1.15254822249590   -3.85392474367203   -1.20756285650448
H         3.26449847064400   -3.28272458274932    2.16924421882304
H         5.18484320032906   -3.65654831705728    3.67221044940549
H         6.15368806919227   -1.76508416210344    4.92856433247745
H         5.19658367423006    0.49455417463021    4.67062013870319
H         3.28193229151425    0.86734516157593    3.18844134310350
H        -1.83492200309244   -2.50755337416479   -0.32389069088675
H        -2.63589419249120   -4.39036913945150   -1.71502953472847
H        -1.01352133088370   -5.91477309209787   -2.77441337676630
H         1.40443786129713   -5.58301332267229   -2.42997876469655
H         2.20704334010280   -3.68254033303156   -1.05356785041198
N        -1.21576283244199   -0.06977418352118   -1.56234975451585
N        -0.64421253029461    1.88867316102649   -0.13105441630817
O        -1.25025108252128   -1.02644010016186   -2.37441474076652
C        -2.01913042755032    1.00794604832599   -1.65359594927057
N        -1.70067611293711    2.03220438087719   -0.84413280211649
C        -0.23954288001988    2.96951633390977    0.63969271271254
C        -3.13835999066885    1.18750847036915   -2.57780056463294
C         1.13079986381879    3.17127415113056    0.82252895253967
C        -1.15873105693294    3.84960689581717    1.21280291245822
C        -3.68950252476069    2.46342082804627   -2.72686870843855
C        -3.69156363934234    0.12442352305595   -3.29142921008648
C         1.56960061412013    4.23491792689084    1.58443526616319
H         1.83255569043817    2.51237396927233    0.32823328068364
C        -0.70622932215449    4.90165970561975    1.98191062652809
H        -2.21270887004263    3.67610534468847    1.05760210423704
C        -4.76172976634398    2.66733809907862   -3.57082917793675
H        -3.26043912613985    3.28359424361085   -2.17313416547587
C        -4.76774428486888    0.33878559828274   -4.13296191825151
H        -3.27704893631571   -0.86623802748588   -3.19331584156110
C         0.65441279679630    5.09206910474099    2.17517258265487
H         2.62801843593952    4.39380788581361    1.72428862399746
H        -1.41563081293849    5.57529346049844    2.43897917209487
C        -5.30536089395515    1.60591174131085   -4.27808418732772
H        -5.17680791026050    3.65858090906520   -3.68089442527000
H        -5.18777376472112   -0.49229418025871   -4.68027713055628
H         1.00129840619220    5.91191896694480    2.78601786940831
H        -6.14322633689542    1.76782056243145   -4.94017816118141

