49
CSD_code = YEXVAA | q = 0 | S = 0 | Stoichiometry = C11H33ClCoP3 | MND = 6
C        -1.32399768132403    1.94719340361214   11.64570079929650
H        -0.92650099403445    2.79121035564121   12.20206134504472
H        -1.50754845058864    1.13192989197698   12.34254821535652
H        -2.26545220824401    2.23546920906676   11.17849830309224
C        -0.43351484097631    2.63976124811278    9.06541353266815
H        -1.49941333773267    2.76518723596696    8.87536166096285
H         0.07680318738904    2.34660206328729    8.15106319962030
H         0.00055844091739    3.58161801114150    9.39379579686305
C        -1.22860984845592    0.01367259082499    9.73055575042869
H        -1.36716082719547   -0.71197070249559   10.52940553275167
H        -0.78348907160087   -0.49345993098756    8.87935785282822
H        -2.19801278398619    0.42007131516421    9.44265911525474
C         3.77794856143990    0.15567850908717   11.64823268199353
H         3.87851843556954    0.30150084367133   12.72501638957585
H         4.59174427438219    0.68648429671251   11.15511001549935
H         3.90676619011091   -0.91346443876896   11.47043418638247
C         1.97513348248285   -2.25322280374758    9.21513914607393
H         2.34116653150186   -2.76284622985013    8.32471769796230
H         0.89418689459587   -2.35962062182289    9.27500641829203
H         2.41549277603182   -2.70759748196596   10.10008979156907
C         1.76186064606551    0.00721991198056    7.53187617556748
H         2.05186447529028   -0.74073284774433    6.79392664598417
H         2.19056040166246    0.97116914760885    7.26484908337421
H         0.67909372777548    0.09383639143655    7.54674324934499
C         4.18643669183974   -0.62613501840307    8.66057258378234
H         4.75667037372233   -1.18352416062652    9.39847535008494
H         4.60680666668652    0.37177498520272    8.55797947336405
H         4.23101626173610   -1.14139142745371    7.70116109826417
C         1.20929286597493   -0.48920930907601   12.19088365070346
H         0.70003300238392   -1.26637290679105   11.61901367780137
H         0.46592630779089    0.00542371816746   12.81881071173986
H         1.90220420046978   -0.99173972234448   12.86252647657145
C         1.75487456602295    2.40559894763502   14.08141372815385
H         2.20094544246560    1.51418567096632   14.51700485822939
H         0.67288458068495    2.30116813056592   14.11905256227055
H         2.05666318321015    3.28137573427367   14.65461521925943
C         1.61145826177791    4.18683232492066   11.88512644407990
H         0.54503528526011    4.13051351320950   11.68684365216290
H         2.11767647172806    4.52798952725016   10.98415306605265
H         1.79059208891100    4.89051710075752   12.69815944451334
C         4.03456919556598    3.11321238333026   12.60954847883480
H         4.01557054975383    4.05406301623487   13.15950796046546
H         4.50690600497256    3.26633390359934   11.64173824969581
H         4.59828702053707    2.37466328000175   13.17268899695830
Cl        2.89346486177991    2.38292947023657    9.49024406951305
Co        2.03552952188713    0.82801563099347   10.94913387151800
P        -0.14006847450866    1.36541341671872   10.35397790035229
P         2.31378531548589    2.54689859260422   12.33278377737386
P         2.43454177277452   -0.46972616989412    9.17642211247057

