104
CSD_code = YEXXEE | q = 1 | S = 0 | Stoichiometry = C49H49HgNP3S(1+) | MND = 4
Hg       -4.85278682018353    3.00599915008547   11.70643825777335
P        -4.85387250366005    5.72366338042770   11.87438746285688
P        -2.33439240062846    2.52225728446838   10.77109973564250
P        -4.62600026234083    2.11733497576153   14.27784959399474
S        -6.88372350633825    2.21119577414904   10.72050129933386
N        -2.41794711267087    4.36376416507158   13.36905306962251
C        -3.24518351963016    6.48652344557246   12.34319857937064
C        -2.67673749020195    5.79198216001774   13.57737406671895
C        -0.99715037874239    2.82246733112131   12.00189847275518
C        -1.15563016794177    4.19772981672795   12.64341791901958
C        -3.71951402323953    3.38600482251518   15.26524822908328
C        -2.34739111637139    3.68214191247843   14.66524088233804
C        -7.12960819102176   -3.40103233148757   12.98783626487808
C        -5.99827066837109    6.33279377097045   13.15118527892183
C        -6.16523121705147    7.69815465820820   13.36902006595508
C        -7.06133595142575    8.13463742391008   14.32612259979325
C        -7.80107937286074    7.21793016374435   15.05871358318863
C        -7.65066938441176    5.86003885958716   14.83099025032667
C        -6.75095248904552    5.41708330120916   13.87772411523130
C        -5.40820015819641    6.64409014958476   10.41160945622486
C        -6.57139273347483    6.15884161350118    9.81389097303991
C        -7.08766341771145    6.78537150278137    8.69658204119679
C        -6.44187871470169    7.89174280294434    8.16558063802622
C        -5.27926171360677    8.36603035332871    8.75055325366012
C        -4.75457442387835    7.74611387155883    9.87212324852341
C        -1.88593805258924    3.66003922529622    9.42356396733839
C        -0.64791124206965    3.56136135139663    8.79258561949064
C        -0.32590661316449    4.43968929040541    7.77545111066621
C        -1.23192864545140    5.41324354151826    7.38002242816366
C        -2.47083877928189    5.50184157592779    7.99301740383673
C        -2.79894743673501    4.62268296703219    9.00954921723716
C        -1.95122111110325    0.90660359168081   10.03875599321101
C        -2.81389400780682    0.50155765503717    9.01987168374811
C        -2.63881639760563   -0.72445881321368    8.40924927411338
C        -1.60675418648119   -1.55608964754356    8.81746089344435
C        -0.75400018057756   -1.15914675695737    9.83414155808794
C        -0.92254952315741    0.06819588500438   10.45308196929632
C        -6.11399369681643    1.78097545799460   15.26003904230361
C        -6.76280461230772    0.57408154318451   15.00181167574294
C        -7.93141412787966    0.25995833028626   15.66664945187440
C        -8.46495667922657    1.14793063269739   16.58791305291941
C        -7.82549538532140    2.34989682118247   16.84145924073684
C        -6.65530698379803    2.67569829358759   16.17728673856501
C        -3.63218986057991    0.62370490884568   14.58182072616675
C        -3.56346427262066    0.06189692390550   15.85426351462702
C        -2.80870754494944   -1.07734139056077   16.06061481430595
C        -2.12452883915206   -1.66355883204965   15.00596721113064
C        -2.19234762628367   -1.10813632824142   13.73904351272331
C        -2.94546572281538    0.03275252508593   13.52857591281856
C        -6.92271411037094    0.57539500275182   11.38821938235939
C        -5.78865705242544   -0.22679970620243   11.41735570956301
C        -5.85827928652573   -1.50732979193122   11.93331820380650
C        -7.05930378633928   -2.02229395900832   12.40707456126758
C        -8.19328060823296   -1.21845291164119   12.34383095391093
C        -8.13216572975821    0.06813431754610   11.84645106413596
H        -3.39941275453809    7.54621402339086   12.56797122042794
H        -2.57541714465862    6.39897619221146   11.48331557726967
H        -3.40853023397617    5.89569231920924   14.38203844305894
H        -1.75575539897414    6.30679919587019   13.89790607622330
H        -0.03144929026634    2.77720827434028   11.48812924953427
H        -1.03879552089166    2.02527605233736   12.74827245116605
H        -1.12245651209006    4.94224103925583   11.84454303332826
H        -0.29920876708654    4.38700463314204   13.31235326501269
H        -3.60012643240583    3.00509822289523   16.28499642267519
H        -4.33519066325339    4.28829259517174   15.29367801965247
H        -1.82661682092463    2.73123784314414   14.53160912195768
H        -1.76118757804500    4.28211404295281   15.38104205649031
H        -6.32883370134304   -4.02696892006676   12.60160192159280
H        -8.08435763412322   -3.86827396363884   12.75813018133621
H        -7.03001929365776   -3.35745644819435   14.07373124296476
H        -5.60781628230608    8.41354967526193   12.77984506075300
H        -7.19200024707505    9.19258844487430   14.49629588471175
H        -8.50413882814197    7.56545977245224   15.80010462528722
H        -8.23941574814205    5.14532392469165   15.38637165613823
H        -6.63994264713375    4.35238488490690   13.68252154604435
H        -7.05780425847310    5.28267786502633   10.22946831522663
H        -7.98815757671032    6.40886110580070    8.23637336422280
H        -6.84185045869943    8.38160672853618    7.29103197136457
H        -4.77484017251994    9.22422548204589    8.33158839697319
H        -3.84220662985093    8.12206003985006   10.31147520265662
H         0.05146728138099    2.79086440656135    9.08780535623515
H         0.63240986616118    4.36345808967659    7.28458058114303
H        -0.97374707451626    6.09577029921292    6.58499518753716
H        -3.18547036886011    6.24847487509430    7.67951636887890
H        -3.77838556321193    4.67313124104696    9.47820274409068
H        -3.62096106208211    1.16009804810621    8.71648487462591
H        -3.30759394521542   -1.03495249266765    7.62123630103028
H        -1.46922351786404   -2.51615703077699    8.34434091894163
H         0.04881926587814   -1.80905699952424   10.14978461055579
H        -0.25496238321241    0.36179126592107   11.25012136137770
H        -6.34096205895997   -0.11287357118567   14.28061294383684
H        -8.42787735812895   -0.67612352620305   15.46231914311686
H        -9.37930393976474    0.90453344337685   17.10689216667138
H        -8.23944352346349    3.04030242206420   17.56164286161128
H        -6.17236560510891    3.62004615552689   16.38177189525959
H        -4.11064203246306    0.50918494636136   16.67282285222773
H        -2.75729366875928   -1.51484219759117   17.04611079490347
H        -1.54317845535247   -2.55737691251102   15.17293118196162
H        -1.66796010631037   -1.56560621164586   12.91286542754820
H        -3.01385370647218    0.46801534743745   12.53691532087139
H        -4.85340297302298    0.14106547583416   11.00106608537174
H        -4.96520362918373   -2.11670145321819   11.95788703755561
H        -9.14025499221514   -1.60636254223429   12.69023333634904
H        -9.01555001486376    0.68663183485173   11.80418111709266

