95
CSD_code = YEXYOR | q = 0 | S = 0 | Stoichiometry = C36H54CoP3Si | MND = 4
Co       15.90259858043264    8.62843611286413   13.09591023183149
Si       15.41614681605422    9.40536285242237   11.11283768881131
P        17.14889771699256   10.50419375590879   13.35699366387413
C        16.35430169374349   11.78165430441985   12.31742913454496
C        16.40873218160118   13.14999647418892   12.55014450800270
H        16.88855841923734   13.53998187671289   13.43614194061371
C        15.81716116878462   14.03228365708958   11.66059002566225
H        15.85973016129075   15.09581920727297   11.85067225843181
C        15.17139078958212   13.55585445080376   10.53293368654879
H        14.71808342201311   14.24723314695975    9.83677489892363
C        15.08726180961208   12.19015331556825   10.31459622924845
H        14.55172699897585   11.81548378254179    9.45425214819223
C        15.66807075350381   11.29800590953050   11.19808702177968
C        18.93563759156967   10.79300943130231   12.81330249472288
H        19.52582822035134   10.05671953724196   13.37149926860136
C        19.52396943797514   12.17573837217491   13.07392375682300
H        20.54436040654281   12.20240824239689   12.69090282576066
H        19.56567373755578   12.41502074077534   14.13336787690771
H        18.95444468051214   12.94290823183742   12.55519250540593
C        19.04580953971809   10.46467117257060   11.32924229184694
H        18.49958329823214   11.19439722669844   10.73406687741450
H        18.62743054541747    9.48377258262875   11.12434379467363
H        20.08778756023798   10.47330930283256   11.01066581921824
C        17.20292707212954   11.23762225781549   15.07945408044936
H        17.67754049052314   12.22264070064540   15.07772334078523
C        15.78049577673003   11.36440381331826   15.60483662329849
H        15.28668649017916   10.39434135947346   15.54114651445450
H        15.21056461049692   12.07987344117421   15.01593029848733
H        15.77801018710134   11.68824921429416   16.64554573642884
C        18.00352265550864   10.27951805251493   15.95804778574492
H        17.95892214193127   10.58461768367534   17.00330540922800
H        19.04927725301500   10.24151286450735   15.65864176569801
H        17.58575042391445    9.27405795785075   15.88025776183723
P        16.78442850053291    6.84317443764846   12.01216886615605
C        17.33875675236133    7.46824216938135   10.38565735708737
C        18.37028846315286    6.92596571723123    9.62985815678274
H        18.96761444504363    6.11244735236550   10.01553660872359
C        18.66665957622331    7.44612043714209    8.38035013470368
H        19.47389073471809    7.02165187357726    7.79962522240525
C        17.93434164478639    8.50689859285859    7.87621102299840
H        18.16267245928979    8.90493766206409    6.89767033950151
C        16.92584112029195    9.07088247165878    8.64088516032325
H        16.37794566823689    9.92239694869282    8.26394176379907
C        16.62380262032147    8.56528180904657    9.89268239199353
C        15.88430787769549    5.29519027695960   11.40808774785770
H        15.48248765902279    4.82739216301900   12.31451607680248
C        16.71531196214467    4.25696012609130   10.66142750412978
H        16.06450192558692    3.43632705898127   10.35864433858825
H        17.50557198085302    3.83729854869049   11.27851677950166
H        17.15144254392077    4.68418117410702    9.76185465496746
C        14.71189128129802    5.73028752876527   10.53710011350909
H        15.06832816982819    6.16860561914731    9.60655345067537
H        14.11200780066897    6.47558506893298   11.05081516929679
H        14.07747043821445    4.87844238844142   10.29394683753177
C        18.30402609450684    6.06548042715016   12.78266441031297
H        18.75638431485352    5.32807892825589   12.11388852819908
C        19.31696737274596    7.15984111047480   13.08557183637420
H        18.84260306710182    7.92940103117774   13.69530041603055
H        19.67715797089006    7.62124094802942   12.16857631887385
H        20.16992730750694    6.75909601982520   13.63305832039507
C        17.86164787011990    5.38685151339567   14.07670758332747
H        18.72317116123161    5.02835078830149   14.63955063790777
H        17.20649602017998    4.54004888719350   13.88050077308865
H        17.32269405446578    6.10222518641290   14.70072489155308
P        13.67400235938193    8.70096482655556   13.50299099057802
C        12.86002896418655    8.48109569292339   11.88035902367910
C        11.59654190562679    7.93759045351959   11.68660352258305
H        11.03493152670908    7.53743963423349   12.51836925457054
C        11.05308597180403    7.87346921576246   10.41369209687024
H        10.07077417821498    7.44518739025490   10.26999950687443
C        11.76454221679866    8.35380435815855    9.32797663930051
H        11.33437383708792    8.30970607795678    8.33745453602805
C        13.03824086915792    8.86680812213816    9.51333579645146
H        13.60935822453983    9.20773996394640    8.66190498084265
C        13.59522869788541    8.93073337749956   10.77810223920125
C        12.65656100191278   10.17138805727497   14.11441303284610
H        13.07148007573735   10.41462899588487   15.09954041727943
C        11.15392873354948    9.95932730059502   14.26651768133938
H        10.69873645022678   10.89176577545743   14.60104673622151
H        10.91586338979969    9.19609753203232   15.00301738341166
H        10.70220261371888    9.69213076555677   13.31442590303497
C        12.91242403188409   11.35225818380700   13.18554256020411
H        12.48223761411548   11.16640506464707   12.20301759699825
H        13.97897446610642   11.51358828247839   13.05973087958224
H        12.46699875597913   12.26122450223991   13.58876348798993
C        12.97920197011712    7.34130746395438   14.58743869183458
H        11.88592806903043    7.35615998526747   14.59272480057887
C        13.46288078661974    5.99765158257658   14.06201311935651
H        14.55099866279502    6.00998418074222   13.99311265706125
H        13.05792622588852    5.79831955647660   13.07214377598415
H        13.16582021623864    5.18919761215995   14.72991722443629
C        13.50617746242482    7.57247010830136   16.00151546689273
H        13.24309860296324    6.73961520421896   16.65319094805174
H        13.10151034142409    8.48524733774017   16.43500252205344
H        14.59442028881462    7.65465809860709   15.97868285021430

