106
CSD_code = YEXZIK | q = 1 | S = 0 | Stoichiometry = C52H48ClP4Ru(1+) | MND = 5
Ru        4.17178318652983    3.09722554357468    0.49417616802959
Cl        6.18406480513202    2.16209820190080   -0.38049230505599
P         3.02249337581765    1.10250004990416    0.19064221231622
P         5.20426598121239    2.58721928612283    2.46010360539265
P         5.41195771679352    5.05502369953595    0.65223681889357
P         2.91607665933344    3.72667951939596   -1.33584840984718
C         1.51838696146956    1.43263502063614   -0.85533036501690
C         6.67279977120940    3.67628162180415    2.70036039774641
C         6.28138863747924    5.08913267333341    2.28951529837118
C         1.27481592300880    2.93501166493117   -0.96855395433844
C         3.90833145145912   -0.26981316300945   -0.59565006538148
C         3.56597025652604   -0.88890356180752   -1.79183400158101
C         4.36445513594149   -1.90252923983003   -2.29435529763215
C         5.50289200935825   -2.30434614712061   -1.61695551697414
C         5.84761841506682   -1.69273884997142   -0.42185632372072
C         5.05728025086668   -0.67980091137849    0.08277175001129
C         2.27830197727741    0.32783600189391    1.66559116409255
C         2.58986698092992   -0.95116181882150    2.11072657970881
C         1.99523035642084   -1.44638192501574    3.25886223240211
C         1.10029685495355   -0.67211445441666    3.97744907896367
C         0.77905092076054    0.60145168338421    3.53413829074508
C         1.36083417002665    1.09439742387805    2.38290858697459
C         5.67335896467227    1.04508985550222    3.26990701665275
C         6.91026568922407    0.47546948955581    2.96817434282453
C         7.26111423516982   -0.73862117879721    3.52774376691283
C         6.38280731964783   -1.39203440850139    4.37856995273461
C         5.14587517247202   -0.83617796294168    4.66257294650757
C         4.78236645707258    0.37538662500860    4.10398625913216
C         3.93886948906214    3.35724499139112    3.51540061703421
C         3.96243871840193    3.46076848942828    4.90101823004490
C         2.92322186465843    4.09579396848904    5.55932708510759
C         1.86396461912913    4.62996288497788    4.84281522595065
C         1.83446632780708    4.53976418536446    3.45850430173415
C         2.87119356562029    3.90541029918619    2.79994563266273
C         6.69796004360643    5.17901697188356   -0.62224724912687
C         6.27840587673933    4.89941816287445   -1.92189626315368
C         7.16077382880994    4.97583625753861   -2.97897374811668
C         8.48137167735834    5.32938117402732   -2.74591635199742
C         8.90622023124516    5.60341867838233   -1.45767129015542
C         8.02186716094675    5.53201644163587   -0.39388323728648
C         4.69186756091030    6.72969674021587    0.64365259664985
C         4.99412250511144    7.65351664446987   -0.35072382872138
C         4.45697462136624    8.92728864083675   -0.29937669533058
C         3.61187810190617    9.28956617038005    0.73522085720569
C         3.28913242002801    8.36648727878805    1.71653533377692
C         3.82027159704430    7.09241735806583    1.66844253532458
C         3.16824957528587    3.05030151147692   -3.00171616800520
C         4.20103361224223    2.14410789720308   -3.21496064793001
C         4.34765801608001    1.54625196000339   -4.45509184387393
C         3.46883750952285    1.85163709237811   -5.48030734075298
C         2.43791349212140    2.75644106483928   -5.26883205765738
C         2.28055331089617    3.35401226603579   -4.03329584681310
C         2.45840568676374    5.46326674463660   -1.60503126250451
C         1.68061175786666    6.10772308724369   -0.64651835864464
C         1.31426008106493    7.42815743863975   -0.81892286025771
C         1.74160234169910    8.12432030800954   -1.93767944306615
C         2.54833654676173    7.50073055469937   -2.87459391555085
C         2.91146301068642    6.17669929806544   -2.71037513093789
H         0.65444558561808    0.90775286415322   -0.43676272924002
H         1.71696438801531    1.03897776402000   -1.85565353342297
H         7.46351355593583    3.29390068124135    2.04489533886043
H         7.01011529047027    3.62552338516243    3.74124767448355
H         5.57410957352751    5.50781877022920    3.01539746880086
H         7.14277624313657    5.76053815772914    2.24361282246447
H         0.55804731837823    3.16460570578235   -1.76319519527016
H         0.88297851280619    3.33983590204751   -0.02805301157210
H         2.68494048723333   -0.60028733516775   -2.34516300556073
H         4.09318266851868   -2.37862416438394   -3.22481977591349
H         6.12167054665616   -3.09113799773403   -2.02063901512948
H         6.73466041419005   -1.99841803934684    0.11223691035988
H         5.32637827948636   -0.18689744157503    1.00847815334036
H         3.28704337103094   -1.56479557298624    1.56010827383589
H         2.23454652804103   -2.44505673653814    3.59162943787237
H         0.64620216697833   -1.06075535806695    4.87613979043769
H         0.07361732550005    1.20703327080968    4.08393944383515
H         1.09169420184750    2.08119621442892    2.02688510160322
H         7.58166608923219    0.97466573784898    2.28343234119796
H         8.22037599500634   -1.17756434158717    3.29855359563855
H         6.66112343991733   -2.33855327355239    4.81595283664235
H         4.45839827549448   -1.34747003956814    5.31926779372969
H         3.81201503819097    0.80307605647130    4.31615118936947
H         4.79009228217451    3.04045350541574    5.45472996029169
H         2.93803399496639    4.17561353526126    6.63556388332888
H         1.05573012355495    5.12215507664431    5.36152682944277
H         1.00783235610251    4.96758073751699    2.90885861218498
H         2.84707239661821    3.83035984444371    1.68099619329916
H         5.24709849852145    4.59875837149537   -2.08460844188341
H         6.82583499558600    4.74874370287318   -3.98010132325824
H         9.17975366789463    5.38233484083086   -3.56691915375844
H         9.93611482725442    5.87129260388221   -1.27498294806659
H         8.38103166947218    5.74735566832939    0.60150394923236
H         5.65615691235651    7.38079841301058   -1.15941804430523
H         4.70742844910463    9.64119067081846   -1.06926459147636
H         3.20380381363215   10.28765703841493    0.77764468207168
H         2.62530335695495    8.64110675892855    2.52296260745534
H         3.55846589151777    6.37714832015855    2.43773633363564
H         4.88817244341440    1.91414209477382   -2.41115616091990
H         5.14898286668162    0.84090630636569   -4.61536342826743
H         3.58360289616538    1.38690363978418   -6.44782265314397
H         1.75350399314221    2.99307945626036   -6.06971485909522
H         1.47735507503848    4.06017735559589   -3.86838473072110
H         1.35676965804763    5.57110644015234    0.23676770969579
H         0.69534908507992    7.91683797364092   -0.08151495726660
H         1.44908542281485    9.15375760733588   -2.07553085781435
H         2.89305446036336    8.04590567434016   -3.74017549774547
H         3.53623078155424    5.69230085425503   -3.44778412457802

