97
CSD_code = YEYHEQ | q = 0 | S = 0 | Stoichiometry = C46H40N6NiO4 | MND = 6
Ni       -1.22891735772768    5.59885697250036    4.08573619223998
O        -2.60187234264228    5.69133299645272    5.27793629926389
O        -0.16365170160114    7.44584136647885    5.05307220351830
N        -0.24648341843430    4.09178724214020    5.18376446126943
N        -4.04482168960159    3.74657952579706    7.74055220195065
N        -4.02909591730753    4.78880904999481    6.86608639740502
C        -0.81408228401914    3.39061434922578    6.12030281663766
C        -2.09411465843996    3.71425657974751    6.61915962296696
C        -2.91328188568479    3.10840655050147    7.62049287283259
C        -2.85876470140223    4.82100525671455    6.15807484506350
C        -2.62717892445491    1.93663019567717    8.48953680936652
C        -5.14861760315170    5.60781036807978    6.73388693610048
C        -5.07123105345419    6.85072649788656    6.11421616852002
C        -6.21365187242927    7.61603542020884    5.96799654749892
C        -7.43129734967668    7.16177458644675    6.44485008049203
C        -7.50091548815227    5.93497805294466    7.08594453943821
C        -6.36939968003872    5.15817020593219    7.23212510516153
C         1.02332908313549    3.74204481674362    4.69861163014363
C         2.09597581295196    4.60967559749156    4.89514925173746
C         3.33309283024215    4.31755236218053    4.35665214964943
C         3.51739302430550    3.16396040306031    3.61187302577633
C         2.45553134544445    2.29858182608839    3.41292982561388
C         1.21650848366464    2.57971011995546    3.95551781108212
C        -0.08501116969221    2.22993516160007    6.69829730352962
C         0.99740024801233    2.43914743223883    7.54284593051179
C         1.69935618797898    1.36056820547320    8.05020044918309
C         1.33514411390031    0.06972542157670    7.70688774319467
C         0.26338855359638   -0.14212514129419    6.85637500762439
C        -0.44675173640602    0.93338099760494    6.35466214900917
H         0.62796156024304    7.38812940722997    4.50614734356360
H        -0.74181136023810    8.09929757054121    4.64264516062550
H        -3.41029076495302    1.86290886832426    9.23924841220846
H        -1.66181685301245    2.04765219273821    8.97973825953393
H        -2.60609956820569    1.01668882812868    7.90796233163772
H        -4.11904018061332    7.21459486349805    5.76481929862552
H        -6.14973743555310    8.58025605805306    5.48419042687894
H        -8.31963015058956    7.76403185277039    6.32555038149073
H        -8.44585284800176    5.58052266849141    7.47088306390967
H        -6.40085661038432    4.20175812392817    7.72789071497804
H         1.93593101123515    5.51074407947234    5.46925680118784
H         4.15808203654379    4.99844637751657    4.50727289907126
H         4.48258121178536    2.94655273645798    3.18080218534751
H         2.59034440289357    1.40207846354493    2.82571454885651
H         0.38226170085925    1.91353442288786    3.79117002850981
H         1.28119095811066    3.44801237305575    7.80398274075395
H         2.53613907835921    1.52911306106676    8.71168001888400
H         1.88723047767095   -0.77102865080290    8.09987561160045
H        -0.02021894691535   -1.14806891344623    6.58296460265627
H        -1.28368140335126    0.76986920166060    5.69000360966193
O         0.10784702323713    5.71242544843447    2.82385213016828
O        -2.34352919366081    7.41355061089317    3.06752225151299
N        -2.35866772047179    4.20690609193243    2.76733205637731
N         1.50339079138897    3.79398236353550    0.31286547877656
N         1.51615227576137    4.80101174554289    1.22607669421694
C        -1.75338963823322    3.46422682460015    1.88772218357730
C        -0.45862672018535    3.78768191781074    1.41588523121694
C         0.35115612686897    3.18769804467396    0.40394933744919
C         0.33890283171416    4.85184558698922    1.92331887550905
C         0.03792920865696    2.06462036353833   -0.51931031254907
C         2.66271357421847    5.57742455841915    1.38461335367483
C         2.62776070551921    6.80646735166841    2.03421636948304
C         3.79529620087117    7.52816023896079    2.20120228529232
C         4.99700467037184    7.04457544191603    1.71323707333240
C         5.02542865513491    5.83198838140922    1.04277461054053
C         3.86829194747135    5.09823066787265    0.87697585398028
C        -3.60176638790837    3.83018580115407    3.29311674503140
C        -4.70674228319985    4.66690323472042    3.14510841864626
C        -5.90890850917495    4.35142068788383    3.74714839086348
C        -6.02962132034638    3.20179153806088    4.50890104591513
C        -4.93824564926903    2.36300534188178    4.65889702989392
C        -3.73579802855247    2.66851938717978    4.05375231559732
C        -2.44264902580648    2.26666423451800    1.33868885649728
C        -3.57483987992855    2.41366017202224    0.54703683300238
C        -4.23950507311635    1.29872307751068    0.06935621467906
C        -3.78954285693038    0.02998048649584    0.39214035259239
C        -2.66949586812793   -0.12191828926651    1.19200114291629
C        -1.99610508309578    0.99086377095649    1.66125133336997
H        -2.43178909393594    7.03087674283678    2.18855725844857
H        -3.15908702460136    7.22048405959155    3.54691434083054
H         0.79288012120796    2.04123034972344   -1.30071705272223
H        -0.94660209665047    2.19165479857527   -0.96510349747558
H         0.04979028648392    1.11228008601823    0.00785471658612
H         1.68887247457112    7.19058240013875    2.39634409661920
H         3.76455757501837    8.47975431190697    2.71202716560583
H         5.90536754362622    7.61265541815858    1.84790623270873
H         5.95783406560682    5.45537678290032    0.64850928046559
H         3.86823441251550    4.15328992831011    0.35876779704496
H        -4.61978425973510    5.56324722494336    2.54631349742962
H        -6.75527959568369    5.01247095079415    3.63011809448839
H        -6.96670823621818    2.96623357774471    4.98896732753092
H        -5.02197001083102    1.46862308015717    5.25859335819632
H        -2.87721616279684    2.02622139745963    4.18469464950966
H        -3.92856193809697    3.40421918798464    0.29935401299296
H        -5.11417676514231    1.42147147443152   -0.55211756166403
H        -4.31227858227412   -0.83977737656257    0.02294160891506
H        -2.31907049004905   -1.11069680961509    1.45023038410089
H        -1.12201816102266    0.87424132860174    2.28637732206179

