103
CSD_code = YEYHAL | q = 0 | S = 0 | Stoichiometry = C36H58BClN6Zn | MND = 4
Zn        9.19223911212227    2.41836035387821   17.95561920401050
Cl        7.66475351538437    3.93254002707668   17.76242453179977
N         8.73453451365660    0.48162089050677   18.00345767283911
N         9.86992278040095   -0.22425769300812   17.86498828803626
N        10.63280508937041    2.22528676290857   16.59846639867473
N        11.57004068141225    1.39729748834932   17.09111280888525
N        10.39061698899525    2.34808921234884   19.54015298669917
N        11.06279823672330    1.18455225382911   19.51201631542222
C         9.58801141623804   -1.44182454321126   17.38127117506062
C         8.22140523940014   -1.53599311119614   17.20853866194817
C         7.72176337892504   -0.29923991769623   17.63466561083278
C         6.28211492424855    0.08567884996378   17.67590216341223
C         5.45920261414850   -0.88008851379603   16.78924711697204
C         6.28709808163599   -1.70624411573775   15.80441857269714
C         7.34543560397308   -2.54111654175292   16.54000605071321
C         5.73946714774301    0.14497938431688   19.13824022364272
C        12.73295612557610    1.60474775604969   16.45802010834291
C        12.54434373172729    2.59473066967755   15.51450355954055
C        11.19289356815391    2.94326680151706   15.62786674317009
C        10.48702521459502    3.95183634669515   14.78735791482058
C        11.52212770091666    4.87846337862447   14.10346049194624
C        12.93210215643990    4.81080641436592   14.69164727501145
C        13.47803217462401    3.37597932710591   14.65297396670633
C         9.53208666810432    3.27616751375470   13.75344411525719
C        11.45378731129760    0.85929664314168   20.75197308741402
C        11.03060388784162    1.84952032093618   21.61584992830492
C        10.37710310539358    2.78039379578986   20.79914957028053
C         9.76045728916580    4.05589985814544   21.26309725103071
C         9.54499404958801    4.00428225717451   22.79535350480755
C         9.63379760169710    2.60645085950023   23.40865655752186
C        10.99085395524404    1.95585149846007   23.10297866685766
C        10.60110652078552    5.29783558812473   20.83097229973097
C         8.12667835489745   -3.44285787997893   15.58962618435754
C         4.25507569941715    0.52336904815985   19.11124198904848
C         5.92858002371584   -1.19253631206651   19.86022741225054
C         6.47596526029688    1.22412550129310   19.93675503011778
C        14.91949300487575    3.29624306309964   15.14504879995149
C         8.84411532941604    4.36077760845519   12.91821202679271
C        10.28940733338983    2.30862235400892   12.83892026369828
C         8.43699436747749    2.48657227220302   14.47594596498601
C        11.14164133358344    0.59798319224336   23.78121277448050
C        12.03838100888219    5.20983627039491   21.35263482832497
C         9.92794204995031    6.57083127276198   21.35415693979321
C        10.65424229691563    5.39858079513791   19.30414931642277
B        11.22984899230176    0.40022178309045   18.20548555992438
H        10.36749423656033   -2.15178645551044   17.19237199721357
H         6.20256569850531    1.10262571031786   17.27453585321354
H         4.91822855378590   -1.58537524219063   17.41990319122506
H         4.71787921091220   -0.30543994693198   16.23250352607973
H         5.61723724141706   -2.36152195968336   15.24333798838577
H         6.79043875130522   -1.04809220826352   15.09210452188390
H         6.84499952298238   -3.16669012841431   17.28964940177006
H        13.60745876759561    1.04336180596380   16.71752360324659
H         9.85082837694066    4.54693359181072   15.45261136445420
H        11.60517075928171    4.61863169360469   13.04838226814806
H        11.16659798060702    5.90823928155741   14.15789644336035
H        13.58412231331122    5.47500089769554   14.12011403516071
H        12.92407032177578    5.15608396629628   15.72827627965737
H        13.43656512082674    3.00916319135580   13.61982621188746
H        11.99857357358730   -0.04418893510080   20.93686939514105
H         8.78918547357648    4.15089052313233   20.76388710628222
H        10.29672015517433    4.61757026690773   23.29187327492712
H         8.56925222209377    4.43141459879602   23.03040857133710
H         9.49153487733192    2.68578447381857   24.48866273291550
H         8.84050607547706    1.96974602822412   23.00964312229731
H        11.78969369974477    2.61888459107027   23.45770524282378
H         7.45055992193116   -4.11527546139036   15.06607725687637
H         8.65907279429993   -2.84506829515768   14.85285774666567
H         8.85011158932845   -4.04125367817040   16.13809876127398
H         4.11973789359075    1.47068726754582   18.59496071460118
H         3.65049022418387   -0.23004087597358   18.61458698404882
H         3.88315770583121    0.63374438029660   20.12768105639075
H         5.59749446338120   -1.10264734587294   20.89271113071851
H         5.35519486743599   -1.99178925049279   19.39768615078433
H         6.97795170564882   -1.48010387476541   19.86169079609776
H         7.52161725067448    0.96339658951018   20.08316003647723
H         6.42176410196470    2.18345169095119   19.42945844499851
H         6.01875886530563    1.33377201628140   20.91854499927539
H        15.28831292292659    2.27519996103299   15.08384751402219
H        15.56127055548736    3.93063457586195   14.53754688066207
H        14.98532313767923    3.62700327060752   16.17935580200849
H         9.55337939442374    4.93205494749083   12.32625598844378
H         8.12996862850205    3.90468610428312   12.23583510513936
H         8.30439555654930    5.04642984868143   13.56693146266033
H         9.58880898421351    1.80774916742595   12.17405365150276
H        11.02361862094299    2.81911268992002   12.22102620058003
H        10.80327522218765    1.55106754630185   13.42708738722923
H         7.91240890728896    3.11765059442377   15.18806026316637
H         7.71165549810709    2.11586687163212   13.75385034224752
H         8.84968475690149    1.62965454777975   15.00352206297692
H        11.03743172287794    0.70088104130596   24.85914639746881
H        10.37838322902785   -0.09016004060023   23.42415693409619
H        12.11902667576785    0.17114184897830   23.56960969795923
H        12.08020549760052    5.21387563883588   22.43879024379722
H        12.51893623914083    4.30166519039539   20.99470600038002
H        12.61159702164359    6.06309437757520   20.99619316526869
H        10.46465923053295    7.44669273663587   20.99579804363284
H         8.90401756452666    6.62828626594124   20.99283270366506
H         9.91368358325632    6.60913811405403   22.43960732737629
H        11.20353966640665    4.56558360545652   18.87138354682762
H         9.65235450551495    5.41311062392427   18.88389557998536
H        11.15777394193654    6.31829542013679   19.01187051564373
H        12.06840917955766   -0.42916263990566   18.30788706109673

