45
CSD_code = YEYKUJ | q = 0 | S = 0 | Stoichiometry = C19H16N2O7Ti | MND = 12
Ti        1.66461025249992    1.34128066536501   11.22919669427985
N         4.26475515419718    1.74550703965656    7.49481389019409
C         3.41695877590126   -0.80345469997119   11.72966653625681
O         3.61860028149776    2.67579858289024    7.93754741028532
O         4.70155102385341    1.69068713860363    6.36578291368450
O         7.57616349488207   -1.94503503629892    7.54748260062689
O         7.21312752716838   -3.05440485081815    9.35296631652064
O         3.51588101626089   -1.83767653466450   12.35161040018561
O         2.72480636190170    0.22074548158856   12.13799397339644
O         2.75373803870245    1.21924913836721    9.78492653653774
C         4.54939740292021    0.64395798445210    8.37075350692956
C         3.76589785865297    0.47002895017634    9.55289236354931
C         4.14294588088300   -0.59836830325183   10.42271248812522
C         5.18172303697388   -1.44297934185178   10.09494190582902
H         5.44141350301784   -2.25143727055193   10.76472711725165
C         5.89408384802690   -1.26187580593447    8.90856293377877
C         5.58333886381136   -0.21655875735657    8.05167096148266
H         6.14986321141914   -0.06578330287878    7.14254626424454
N         6.97452100462723   -2.15396975211215    8.57866029261672
C         0.31303056561971    0.26171755112622    9.53415118701727
H         0.53380556321160    0.18813638738588    8.47624736574201
C         0.61555945004174   -0.70915441155944   10.51254770115667
H         1.10983541685646   -1.65707784049927   10.33716489378030
C         0.05261448968060   -0.29494910179796   11.74361851267845
C        -0.59326794346465    0.94279737672223   11.51631684869418
H        -1.25449605232688    1.43939152321233   12.21524948714057
C        -0.41828868559787    1.29341994238987   10.15210262451883
H        -0.90673029699461    2.10887959134911    9.63373033042219
C         0.04575122025374   -1.08372761210578   13.01761289774107
H        -0.17927015782298   -0.44309053213719   13.87029691881755
H         1.00951829512072   -1.56746493626516   13.18081383925162
H        -0.71558280871923   -1.86478939507436   12.96522789194327
C         0.85219904406184    3.51109087190119   11.64672463047830
H        -0.10372420098544    3.93014466277619   11.36188328059474
C         1.15624013197694    2.92759709563438   12.89947417705315
H         0.47738386047669    2.82689123013283   13.73740921348643
C         2.54949428885010    2.71403510829680   12.95049342158022
H         3.10802202914703    2.36293380025909   13.80988344149622
C         3.10806239757559    3.12605723599527   11.71802232897679
C         2.04797785076001    3.61603170915745   10.91066354024839
H         2.17069232475820    4.07481333375793    9.93738595614619
C         4.56340162054019    3.15272613985033   11.36945487401622
H         5.04867782871943    3.99662052727044   11.86380706561301
H         4.68911977560853    3.27206716794507   10.29425462633222
H         5.06329745545594    2.23879124886581   11.69790783930083

