33
CSD_code = YEYNOG | q = 0 | S = 0 | Stoichiometry = C12H12N6S2Zn | MND = 4
Zn        6.63484234730524    9.23464817969954    9.31381093299961
N         5.32766702116598    7.63355762193013    9.42357073724202
N         3.80041707995681    5.59683179833730   12.00760369883352
H         4.28625059673813    5.98024601231947   12.80070129677614
H         3.43742520550449    4.66486438390013   12.11154407511268
N         7.45279416637449    9.23416586194525   10.97617287260926
N         7.38791700361133    9.23436167911730    7.64831592798954
S         7.10295361642681    9.23196196472680   13.70897874398887
S         8.13222033543069    9.22769409906174    5.00088742669058
C         4.96463851079866    7.15835098032255   10.60521191502787
H         5.31309535409215    7.69742806759995   11.47434586396014
C         4.18291064340530    6.00795474577206   10.76661353930221
C         3.76882138907911    5.34863973776813    9.60290344463064
H         3.16684413691648    4.45464012443731    9.67436534105915
C         4.14646548035103    5.85721738186074    8.37687090793382
H         3.84554238427700    5.36890604267049    7.46375305641300
C         4.92874100144975    7.00049271962437    8.32350250238439
H         5.25545450129944    7.41879243121926    7.38398357477513
C         7.31998770830052    9.23330186061704   12.14859433729669
C         7.72248672052690    9.23061173227260    6.51536920849454
N         5.32842087751132   10.83612261161786    9.42387836752002
N         3.80062753224557   12.87169134797838   12.00846353346769
H         4.28699086876037   12.48863251382769   12.80140243927585
H         3.43670615950670   13.80327253522677   12.11256421480379
C         4.96557556718281   11.31111661220031   10.60565398480206
H         5.31491324960712   10.77239010801441   11.47464991486324
C         4.18292830996312   12.46084538051729   10.76733616456902
C         3.76773146476082   13.11971368731215    9.60376447579100
H         3.16494995870090   14.01315263672700    9.67543503814425
C         4.14531692305224   12.61141787508725    8.37759630610615
H         3.84358079230748   13.09944067838112    7.46459043996650
C         4.92853167555458   11.46879857686499    8.32394607594510
H         5.25525141784113   11.05073801104724    7.38431964122584

