35
CSD_code = YEYPEY | q = 0 | S = 0 | Stoichiometry = C10H10FeN12O2 | MND = 6
C         4.58292346913540    2.70680853810745    4.50288687589438
C         5.00577261361650    4.03003107012897    4.37695032392903
H         4.44082169000756    4.73280702769958    3.78276369937345
C         6.78980227883336    3.59039544643681    5.69111469675149
H         7.68657885227914    3.95915638661492    6.16624559256056
C         6.39121297530592    2.26738183937777    5.83616471309695
H         6.94835085426133    1.54618592857569    6.41917462831411
Fe        4.58803879860714   -0.00001524166665    5.22480010686617
N         5.28482291997375    1.82429394301889    5.24690591788511
N         6.10011594935619    4.46390778478695    4.97073570111025
O         5.81851414617222   -0.38961091754074    3.39353269585640
H         5.35062155196584   -0.74172710069307    2.62966928409867
C         3.42793182410795    2.11730173182888    3.89165515931356
N         2.46049052981940    2.58181735816970    3.10572164813418
N         2.14428647779493    0.48353762127852    3.45159613585535
N         3.23666111832251    0.79476163315859    4.11898958524550
N         1.69506718615428    1.54375498854001    2.85959238816024
H         6.62064506807351   -0.90738789951971    3.51577087935509
C         4.59319791937554   -2.70685906315017    5.94653983207770
C         4.17032175965133   -4.03007253660598    6.07240532802701
H         4.73525908075541   -4.73290411407011    6.66653960156238
C         2.38626884214423   -3.59030581060771    4.75831832401525
H         1.48948276190687   -3.95901538716089    4.28316505359637
C         2.78490718636599   -2.26729841679994    4.61331095118533
H         2.22777926929587   -1.54604782295873    4.03035856606320
N         3.89133705861100   -1.82428503880776    5.20255042504146
N         3.07595428890067   -4.46388637290663    5.47860868095007
O         3.35816200372524    0.38966383744722    7.05645937945128
H         3.82709184947226    0.74037358053276    7.82036909043379
C         5.74817606995336   -2.11738223015907    6.55784826167748
N         6.71552119383632   -2.58188457107506    7.34390179741117
N         7.03175738556246   -0.48359796597845    6.99807167917529
N         5.93944720661918   -0.79483536079235    6.33054864399310
N         7.48109877543399   -1.54388272104420    7.58984818969568
H         2.55677904460375    0.90881985583345    6.93518616384367

