88
CSD_code = YEYPIC | q = 0 | S = 0 | Stoichiometry = C36H38CoN7O6 | MND = 6
Co       16.25380948249030   12.53808599280917    8.98975260042451
N        14.35716917752486   14.76253042230960   11.86252788589101
H        13.75310913565581   15.51653283362384   12.14036836528974
N        15.71070690217884   13.56738569461523   10.55646375630655
N        15.02017281136174    9.47355205344047   11.32481200981318
H        14.27490614103205    8.99186806217882   11.79648411131894
N        15.99666352159137   10.92829817566565    9.95806745830962
N        18.09800825995725   12.77433371543135    9.56127810917921
H        18.18491119755658   12.63632676405776   10.57328418078518
H        18.60751979074753   12.00175033050587    9.12226407562516
N        16.46518580228056   14.15623548013501    7.96149203384986
H        16.03099721175903   14.90496359377731    8.51688416789381
N        14.50030744670734   12.43837420238511    8.16763164860775
H        14.55306440418154   11.53247074683563    7.65092061894098
H        13.74848017063241   12.33849006189303    8.85565434774730
O        14.48368588505453   15.29690862015516    9.64298920231850
O        16.93269848924601   12.46161850808988   12.14592779900185
O        13.78732299256683   11.24338174818099   10.56234797212045
O        18.06862802651572    9.98216444976721    9.74402521833377
O        17.00846200058357   11.53335101271978    7.52955357163654
O        15.35303037159690   10.17700758880497    6.92444957485949
C        14.79630461225672   14.59432672858057   10.59471622892399
C        16.02482942204923   13.20249685292837   11.81415067990157
C        15.09070864478068   13.93937840088307   12.79472222001340
C        15.81095327855761   14.82453675530256   13.79220848025743
C        17.14676402496414   15.16845414640616   13.64735504857829
H        17.72617784105202   14.74995099557376   12.83879479225679
C        17.74781637814798   16.02732982023717   14.55241294167032
H        18.79094816840150   16.28196539329948   14.43545495682956
C        17.01819844778653   16.55855119033794   15.60094523090750
H        17.48873131681471   17.22937770415970   16.30431204168080
C        15.68172303526193   16.22492751062796   15.74595731289874
H        15.10578659228468   16.63596496607427   16.56190703809655
C        15.08122897849159   15.36386252013907   14.84657203702237
H        14.04031551366432   15.09738994960456   14.96349647275469
C        14.25164876148322   12.88439505457787   13.48176336166089
C        14.80546708187184   12.17311278837299   14.53903268898940
H        15.81502535940194   12.38962150448444   14.85485448102578
C        14.07098592407868   11.18391882505781   15.16788230262133
H        14.50383418077935   10.63579522313795   15.99231723522321
C        12.78662388548697   10.89140184684904   14.73933423916370
H        12.21619971117918   10.11555957033895   15.22945636122267
C        12.24041569667482   11.59082593606345   13.67714667053651
H        11.24443021193137   11.35937127754434   13.33034447178642
C        12.96882201129784   12.58426082014678   13.04741004327434
H        12.54521109529116   13.11405550717492   12.20913511236887
C        14.82765434711136   10.60963645413451   10.61550469906881
C        16.93349604998104    9.99500157702887   10.18026221639907
C        16.33567983411927    8.91705323089371   11.11742729675890
C        17.19580212171285    8.90106626221688   12.35824147343151
C        16.72516725336584    9.37273833741765   13.57419336487871
H        15.71769406370407    9.75040696219630   13.65186914519688
C        17.55116984017610    9.37432298091658   14.68455890834985
H        17.17640166873404    9.74376243893393   15.62811880465275
C        18.85123562946932    8.91098493962691   14.58955998727228
H        19.49363331225485    8.91319267735651   15.45837234078200
C        19.32836861851792    8.45185291046485   13.37280784389066
H        20.34554806794002    8.09731187809468   13.28932419499207
C        18.50728399797341    8.44776130476424   12.26099774797641
H        18.87910025687186    8.10640096500439   11.30736493417552
C        16.23295867456169    7.57291585134928   10.42280377320730
C        16.47811459161404    6.38531228475860   11.10006412391499
H        16.78016352748859    6.40959132893743   12.13682089633553
C        16.33810333884671    5.17027956597065   10.45219692173004
H        16.53395549938404    4.25345384976726   10.98919534703539
C        15.94680427120676    5.12800679242121    9.12527011390296
H        15.84285739282249    4.17862141365264    8.62052164305292
C        15.68291335125561    6.30835053475017    8.45146740995680
H        15.36776149311796    6.28720875939292    7.41898560913056
C        15.81829125549676    7.52448808423173    9.09646087680783
H        15.59827632920615    8.43746505295291    8.56454388297572
C        18.57242115845314   14.08643674609268    9.11579473515203
H        19.66299493694414   14.11542146967015    9.01289248690131
H        18.27146743198460   14.83714668906692    9.85267623344373
C        17.89388443762188   14.39802429490147    7.77690276320484
H        18.10397199809739   15.42388732913687    7.45101166430979
H        18.25765977738276   13.69730746831154    7.02139171555989
C        15.64775957507545   14.03237263434642    6.75195296070715
H        16.10215421274450   13.28728129619892    6.09532609074001
H        15.56846471095947   14.98543741271189    6.21580665355481
C        14.27588523881562   13.54854949677813    7.23216046534461
H        13.78384724295521   14.36652046900213    7.76303742849034
H        13.65518946335188   13.23768386637614    6.38576095967596
C        16.54371279342678   10.48899679380727    6.97138570076723
C        17.59798952541398    9.60868360193515    6.31674570307499
H        17.12387841619493    8.86296733251893    5.68621767566133
H        18.14927021256899    9.11948398893865    7.11774089565976
H        18.29122468587871   10.21435132768536    5.73920115399590

