54
CSD_code = YEYQAX | q = 0 | S = 0 | Stoichiometry = C21H27N2O2PRu | MND = 6
Ru        5.98139451780773    4.97158582059586    9.72940436325350
H         7.03538866578602    4.38705922082411    8.74774746638761
P         6.96120904499884    7.11929682760369    9.50925891581349
O         4.02369276174249    4.92668297653491    7.45356226094070
O         3.87273279880276    5.43131851150794   11.80961665546246
N         7.38017860293071    4.84290878430294   11.23879130076529
N         6.80802939356737    1.34915571800531   11.71803720447143
C         7.70528410520413    7.24220859169233   11.20947123451078
H         8.54161293613532    7.94380550394614   11.25979245602048
H         6.90768744159885    7.61399877356557   11.86582706671309
C         8.09185017821802    5.87679436788832   11.70127319477141
C         9.09252371159319    5.70002761586342   12.64486244202539
H         9.65684041401696    6.55109414916679   12.99510734877331
C         9.35136828050125    4.42581763974282   13.13712445770055
H        10.13319442739213    4.27377737610708   13.86551366705674
C         8.58169628854489    3.37150884367150   12.69304337423993
H         8.71029845783028    2.36341015572181   13.05042307622593
C         7.59349689131500    3.61160532937091   11.73862148843188
C         6.69798280518668    2.58574799103460   11.22435101420201
C         5.75900821328263    2.99759891301283   10.25552971430166
C         4.89603824969378    1.99365183638504    9.80765793262505
H         4.14309156892392    2.21690110974370    9.06025125612609
C         4.99524749656733    0.70993624488602   10.31700437530324
H         4.33010749865657   -0.07270743411080    9.98268192188024
C         5.97220701850052    0.43793350798519   11.26978965233951
H         6.08733097967344   -0.55292895901814   11.69064979667240
C         8.50106117472792    7.31222563117629    8.40773294635448
C         9.15104520361213    8.69442122462628    8.39839085243771
H         8.52808594911918    9.43278974373271    7.90163531872072
H        10.08799020276490    8.63360324407427    7.84492255845721
H         9.38590380698821    9.03897847426185    9.40370628546892
C         8.10243975499851    6.91324910101134    6.98546010010514
H         7.56326209552343    5.96611386595776    6.99998530012711
H         8.99243922407799    6.79181386854292    6.36973153021530
H         7.47045062563005    7.66216872662611    6.51726247149144
C         9.53286055430234    6.30258645647691    8.92352347273617
H         9.96859504278295    6.61434885632540    9.87094483903600
H        10.34237447733966    6.20941995368784    8.20092443998359
H         9.08459228055339    5.31718974596439    9.04613735600514
C         5.91331115367439    8.70280738774700    9.43336858402186
C         4.61337281612795    8.38440053222118   10.17744867946021
H         4.08676545279354    7.56167416238912    9.69281706695173
H         3.96020361953305    9.25608862694826   10.16843601131498
H         4.79476378994532    8.11920333320291   11.21839990032599
C         6.53578538620453    9.94467750457424   10.07059928708354
H         6.72532178417089    9.79752615932721   11.13126185828173
H         5.83404585583787   10.77296614112284    9.97427116283833
H         7.46076067773511   10.24101360143082    9.59020084963316
C         5.55392631749136    8.96148772126238    7.97005736012985
H         6.38934293825566    9.38227243421706    7.41687627222132
H         4.72623370748269    9.66711166582446    7.90893747129292
H         5.24275319285709    8.03028825151520    7.49341363689241
C         4.77186068739045    4.95143430036419    8.32935443315739
C         4.68415947961388    5.34964986936920   11.00020631823062

