54
CSD_code = YEYQIF | q = 0 | S = 0 | Stoichiometry = C21H27N2O2PRu | MND = 6
Ru        1.88606343504644    5.80161776983586   11.24891333147185
H         0.96725822158668    7.01477641983049   11.52232733264189
P         0.27950995081552    4.92259927803861    9.74788755625748
O         0.90931089868375    4.53458267398115   13.79395490104883
O         4.22519506181224    3.97797904263571   10.89000716196219
N         3.37257142978418    7.01340750993525   12.00119074185282
N         2.53854321333413    6.72357500376141    9.56420883955883
C         3.72719971834426    7.12702075903179   13.28160531745063
H         3.19228109957442    6.50173876650539   13.98763438848496
C         4.71672930549848    7.98716403490593   13.71632644484587
H         4.96427769091865    8.03815106903369   14.76415171160090
C         5.37318871411127    8.77598725034436   12.78065249787433
H         6.14872732183774    9.46291728592544   13.08226399470911
C         5.01014768301508    8.66374791461917   11.45382886928911
H         5.49795534281700    9.26578162581660   10.70535914276632
C         4.00445929430589    7.77197295706238   11.07767027902101
C         3.56103815802023    7.58333322931241    9.69364178867948
C         4.14066342892333    8.21175837624978    8.60303072015473
H         4.96159602113577    8.89798934288041    8.71597200926682
C         3.63455087294730    7.92204141802669    7.32543325433712
H         4.07319890564231    8.39967427373741    6.46150970752268
C         2.60399025144285    7.04509739708745    7.18521189872823
H         2.20131851223521    6.80343669653804    6.21363624069521
C         2.02226348320001    6.41391810913307    8.33151713004353
C         0.99826248067274    5.49379962841395    8.24348007863331
H         0.54366454936773    5.27423254603634    7.28806224594242
C        -1.46484721974186    5.71074758025949    9.82689871546239
C        -2.47509093850220    5.10578011948146    8.85429181457770
H        -2.07125398679227    5.07952034313824    7.84439715243313
H        -3.36777008162960    5.73161599055248    8.83962823200626
H        -2.78214832190744    4.10663260565388    9.15017612770317
C        -1.26783747500972    7.17591203793601    9.42939597329774
H        -0.47956307602050    7.63518278246935   10.02151155145634
H        -2.18883441973727    7.73288889014426    9.59479119165904
H        -0.99866299228575    7.25709724597452    8.37797587076363
C        -1.99943782447549    5.64370241951317   11.25608276991287
H        -2.24398461914031    4.62656891491476   11.54762453315590
H        -2.90287448590444    6.24674195889294   11.34136579646606
H        -1.25700957165558    6.03406230463564   11.95079152781256
C         0.09127571103075    3.03676922269500    9.55200774077682
C        -0.40152913664020    2.61716277947770    8.16778664967037
H        -1.40710639923428    2.96025820296964    7.95787381935416
H        -0.40216618456617    1.52878779374736    8.10615152067543
H         0.26725359748185    2.99574468548568    7.39878249366823
C        -0.79693946017859    2.47097010983242   10.65725176718297
H        -0.50998270507401    2.89743571496731   11.61934208506890
H        -0.67656255154308    1.38913201054082   10.71218112756534
H        -1.84808393068259    2.67923372633180   10.47764000584147
C         1.49778238223449    2.46078840368210    9.72318368340568
H         2.20238264418688    2.97588165927958    9.06899076826415
H         1.50536146235145    1.40282651013015    9.46301109879821
H         1.82779328995175    2.55535424368746   10.75703962979568
C         1.27956253718558    5.01897253481866   12.81648207535963
C         3.22960871124172    4.54242883006372   10.95946669301412

