99
CSD_code = YEYRUP | q = 0 | S = 0 | Stoichiometry = C48H44Cl2OsP4 | MND = 6
Os        4.43789416787661    2.85680952135154   10.48246257285311
Cl        2.66759515680557    2.50246396702077    8.87810998695883
P         3.20021022841960    3.56510871998223   12.31411564993345
P         4.05892494304502    0.66205398521072   11.08968600361086
C         1.90536717252901    6.05832370186865   12.49845137060850
C         1.87399608198699    7.41653286690047   12.75429628038378
C         3.01909719366982    8.07346198694096   13.17307770597296
C         4.19951467490162    7.36901988964462   13.34464248703194
C         4.23719286644341    6.00966974441723   13.09578203493971
C         3.08801603844880    5.34710827400080   12.67055134515536
C         0.63626199292870    2.61209871765728   11.72452896385258
C        -0.64933245690622    2.22399166196070   12.06006895742016
C        -1.05873075042622    2.24647899844073   13.38216806013738
C        -0.18401348558532    2.66185565327102   14.37458892486040
C         1.09831610804802    3.05421102998175   14.04557479578486
C         1.51382253048494    3.02755259003852   12.71762579942144
C         1.89902328147514   -0.17197354634296   12.68119022097398
C         1.27190913460546   -0.39089362506257   13.89378031931088
C         1.93416248054164   -0.11505704231787   15.07846945301999
C         3.22994551523206    0.37591243322749   15.05466248316330
C         3.86237843363516    0.59740432916372   13.84565146709337
C         3.19652795588634    0.32581337615273   12.65327540452757
C         5.05641533584944   -1.93066403952392   11.08310931277224
C         6.03684179883513   -2.89054332454438   11.24106099785728
C         7.33229484163455   -2.51421915020149   11.55986461791983
C         7.64804775623113   -1.17579275526425   11.71834627568878
C         6.67197631460410   -0.20902515776283   11.55439263409442
C         5.37366330160792   -0.58508918515551   11.23536346836276
H         3.79011798603358    3.21961651654252   13.52986998096880
H         3.19284344925273   -0.05464305738767   10.26425160399361
H         1.01317563408625    5.54434573836472   12.16855957412957
H         0.95260294148585    7.96497245386314   12.62396275454261
H         2.99017745203532    9.13520052175868   13.36955846272562
H         5.09143739372358    7.87971823953783   13.67825277083493
H         5.15163509818928    5.44845012497707   13.24031476466705
H         0.96635267543373    2.58367480734291   10.69512162473570
H        -1.33114907609848    1.90015669612133   11.28718551115727
H        -2.06105038749851    1.93902733665294   13.64342411302283
H        -0.50437736151250    2.67770481372583   15.40633279430771
H         1.78818238073127    3.37998776447870   14.81325531494397
H         1.38405726516577   -0.37708518096083   11.75238299134299
H         0.26296855385033   -0.77608306287856   13.91489006193436
H         1.43975166707090   -0.28528373544298   16.02356163622338
H         3.74648393611028    0.58578554525782   15.98012897209323
H         4.87876670557946    0.97073559408634   13.81089830726880
H         4.04212222626711   -2.21595755842251   10.83633976168562
H         5.79220550143757   -3.93553558184533   11.11658342920498
H         8.09564905475911   -3.26853240613501   11.68484287960984
H         8.65751418902507   -0.88298259846909   11.96785855441870
H         6.91329278425852    0.83912726964590   11.67107438433278
Cl        6.20774551912683    3.21088426062995   12.08546092894382
P         5.67538809125569    2.14821580059121    8.65119142045604
P         4.81681185610932    5.05162736606422    9.87546157243268
C         5.78761857669625    0.36630828567450    8.29436187216950
C         7.36162013887217    2.68598787060802    8.24741411690034
H         5.08541284962887    2.49363137153148    7.43543898457490
C         5.67916861503084    5.38758205658319    8.31174470946795
C         3.50198432141904    6.29867194680153    9.72958567761493
H         5.68289716746972    5.76833745063816   10.70086342727935
C         6.97028769632462   -0.34483851447016    8.46651683092284
C         4.63845924657874   -0.29631147314643    7.86916299226537
C         8.23913834100524    3.10149570444922    9.24051155872458
C         7.77713359614932    2.65927271139469    6.91944992487467
C         6.97662642580717    5.88547979980107    8.28378497899120
C         5.01332431541468    5.11594839781529    7.11936425533089
C         3.81923465344415    7.64426155291902    9.88161302044894
C         2.20364790140157    5.92257257506559    9.41066376657156
C         7.00173305348609   -1.70304302373676    8.21069760665911
H         7.86242465233531    0.16917674838621    8.79649494149040
C         4.67622274708454   -1.65565793137736    7.62028594593813
H         3.72396824167290    0.26485015857553    7.72467052233272
C         9.52473247161031    3.48960275398732    8.90495088147683
H         7.90898342169970    3.12993083934398   10.26992464776159
C         9.05945471497608    3.05166011134894    6.59042398042414
H         7.08729807162496    2.33338670899767    6.15178259775571
C         7.60369602899351    6.10447107900148    7.07118799641655
H         7.49157628869910    6.09071791346527    9.21257318545715
C         5.64570560158832    5.33751653859115    5.91033679151344
H         3.99690356445574    4.74270657386825    7.15411921714430
C         2.83879464402561    8.60411081310582    9.72361515105227
H         4.83353230918148    7.92959016716481   10.12832147517470
C         1.22755484325656    6.88930476923050    9.24665844361951
H         1.96231131475378    4.87441674039760    9.29411850486823
C         5.85669123213856   -2.36002361031992    7.79182943799105
H         7.92317394049614   -2.25140544760238    8.34100014622498
H         3.78434382234058   -2.16641261204933    7.28664334515947
C         9.93413477015955    3.46710988078425    7.58284218501089
H        10.20651249941566    3.81354659874079    9.67781531885250
H         9.37982572803306    3.03580967884391    5.55867978852840
C         6.94144943492567    5.82859382122106    5.88650472573356
H         8.61263742095590    6.48965235640455    7.05006173133130
H         5.12918208063795    5.12756555900236    4.98487498755280
C         1.54331308464861    8.22774809274108    9.40495856116308
H         3.08343564294944    9.64911845117281    9.84794417217148
H         0.21808825966024    6.59645556578471    8.99717444538940
H         5.88568174230928   -3.42174995192241    7.59530881429862
H        10.93641689830343    3.77466528806647    7.32156113886238
H         7.43588895467069    5.99870246164163    4.94140396316540
H         0.77995452498710    8.98204188232750    9.27989746969090

