93
CSD_code = YEYSOK | q = 0 | S = 0 | Stoichiometry = C49H30AuF10P3 | MND = 4
Au        6.71199894578438    8.91403980602772   10.55414662491462
P         4.85190444760514    8.85030204413554   11.85785976091424
P         4.92755238818855    9.05448505017883    9.14072462103415
P         2.06753758655070    9.38515063900300   10.78080765304609
C         3.86350840602834    9.44416126066969   10.51645472623745
C         8.08255565539032    9.06576303325876    9.06989468677551
C         8.56064495926286    7.97474864210410    8.36045174819239
C         9.38302548790305    8.10751568055047    7.24627765756897
C         9.74040784516944    9.37902133028662    6.81121314127584
C         9.27824117847813   10.49568007789248    7.49909302136009
C         8.46268404381834   10.31774619322543    8.61029621685085
F         8.20561446095608    6.74095759428347    8.75116429907537
F         9.81467528684921    7.02899105753448    6.58350071761184
F        10.51454050864514    9.52738397027091    5.73219711423524
F         9.60554679376098   11.72290194067644    7.07918484256051
F         8.01448658970998   11.40364047435517    9.26130559002313
C         8.02159980219529    8.99200791557749   12.10042431690391
C         8.82938255579704    7.95561017875685   12.53911639492562
C         9.62821880360750    8.05794315252029   13.67420358130499
C         9.61877009083191    9.23742543158482   14.41051140494484
C         8.81838437540131   10.29838283687638   13.99944073667082
C         8.04217752912837   10.15597535219212   12.85604903297292
F         8.83617384264054    6.80093891278048   11.85410512837555
F        10.39162299901826    7.03220880227627   14.06575173154172
F        10.36858756111445    9.34839501445108   15.51066551775240
F         8.79273277556725   11.43151709369600   14.70943921110445
F         7.26615745180206   11.18108296503522   12.46699592918985
C         4.46817985304328    7.21690146971981   12.53823542911609
C         3.25778429150955    7.05208190090034   13.20799554412616
C         2.88913511122342    5.79409250590640   13.64251451374289
C         3.72213553109821    4.70851172951974   13.41242748814064
C         4.92617286453078    4.87559300049851   12.74691666418354
C         5.30261227622947    6.13029475522778   12.30212646922533
C         4.65131694019500    9.94307289491923   13.26614254951231
C         3.99960614495078   11.16252313151430   13.13762890455240
C         3.94694361448718   12.01851847560469   14.22186125101977
C         4.56522801162242   11.67095904650181   15.41247826385152
C         5.22886761699835   10.45852723269713   15.53367903275030
C         5.27517196696718    9.58949603006134   14.46195202676378
C         5.13253745125695   10.48025782205607    8.05876745869952
C         4.86230387134992   11.75354947152556    8.54906622125907
C         5.17841503239346   12.86068863072784    7.78603588364717
C         5.78627950886789   12.70233768348296    6.55065904147990
C         6.08707504591830   11.43457538841872    6.07654609141236
C         5.77166589934174   10.32026193276345    6.83043930054050
C         4.58032166380756    7.63954222522563    8.06602356121250
C         5.04902841221964    6.40285123477033    8.50302314292266
C         4.77423289303850    5.26355549137627    7.77404202703382
C         4.01433681018273    5.35204747729008    6.61798255464312
C         3.54334712597791    6.58105408674455    6.18445517661474
C         3.82759029818111    7.72969471417769    6.89867509822928
C         1.49920022814546    7.99424437085089    9.73542140906563
C         2.13187254076563    6.75894029432962    9.82530118843635
C         1.66216707960178    5.67619911340109    9.10733634379746
C         0.54843096336568    5.81244918906276    8.29644099193362
C        -0.10717046774946    7.03078885748616    8.22707913008822
C         0.35385013483290    8.11321987868348    8.95219385944604
C         1.66322896322937   10.79953545230102    9.68886493778288
C         1.92805506304729   10.75039174794618    8.32499343430900
C         1.71457627484451   11.86152628465810    7.53387496173206
C         1.23736616384965   13.03335404012425    8.10062007310857
C         0.97159171455779   13.08915518447635    9.45807492172810
C         1.18500627167553   11.97549898448746   10.25234696783315
H         2.61845986112053    7.91217979219657   13.36719392993971
H         1.95015856896674    5.65670201840713   14.15776866227584
H         3.42962873669166    3.72653844537628   13.75326219198086
H         5.57370164243269    4.02914090192611   12.57278980431072
H         6.24252161353654    6.27494272925690   11.78244911109388
H         3.53735765798866   11.42039056231356   12.19338440899274
H         3.43409630679963   12.96506871459111   14.13638570655386
H         4.53693785526317   12.35019287198033   16.25128732317019
H         5.71445166184196   10.19785411809192   16.46252476780985
H         5.78643863426826    8.63623772603329   14.53515372413484
H         4.40786193154093   11.86060821583638    9.52427891878166
H         4.96245609096242   13.84959421963810    8.16102767592932
H         6.04311193093628   13.56904352800924    5.96048453097728
H         6.57951833882291   11.31585494544849    5.12240578718726
H         6.01919525750374    9.32713194346567    6.47639615991520
H         5.63836692844896    6.35057586774689    9.41077739655274
H         5.15365629851976    4.30866169117508    8.10545256836697
H         3.79247272211945    4.46145901111782    6.04935263272924
H         2.95458279975573    6.64677639135207    5.28140482503025
H         3.48100842760639    8.69080466352341    6.54420781354130
H         2.99976106367623    6.64480666037837   10.46179016142462
H         2.16718074973482    4.72408107389497    9.18355570171517
H         0.18512380914449    4.96859274810472    7.72869278078698
H        -0.98740338678102    7.13683764327110    7.60934579224695
H        -0.17115395546407    9.05777893946801    8.90782663701811
H         2.29660555773879    9.82757568692279    7.89561553895934
H         1.92581641048546   11.81919819389709    6.47463920931536
H         1.07207230272378   13.90246916355325    7.48101456798061
H         0.59750453961106   14.00197579341453    9.89870469971211
H         0.97851410673021   12.01025756328354   11.31392964827615

