103
CSD_code = YEYVAB | q = 0 | S = 0 | Stoichiometry = C50H45NNiO4P2 | MND = 4
C         2.97626840534674    3.53644535569341    5.04110054660590
C         5.29504784922905    2.95589598761998    4.72347926051010
H         6.26868302807492    3.18517427035158    4.31414097383416
C         0.31619709357586    4.19687889650764    5.79095937130106
C         0.47246530390796    4.24799726130083    7.17228793788845
H         1.41397653466786    4.57038224216931    7.59541563232610
C        -0.57574700928330    3.89004130933708    7.99967153405396
H        -0.45234205017382    3.93351124357109    9.07230651696935
C        -1.78397680337695    3.47976283288636    7.45850855038467
H        -2.60135257669786    3.20680259104187    8.10972373927980
C        -1.94385050617057    3.42274051791550    6.08463115055543
H        -2.88613872901174    3.10674139135451    5.66158287750734
C        -0.89616339896254    3.78138957535228    5.25635583529722
H        -1.00812647788089    3.76271453902389    4.17764950674249
C         2.22586372517985    6.16668764656612    5.57257186399602
C         3.34891099285659    6.25885227212526    6.38231399954211
H         3.99449288403516    5.40248538598194    6.51074217726790
C         3.64098895364463    7.44734596110274    7.03118964461817
H         4.51278187043233    7.50831062939694    7.66575114508896
C         2.82721089356607    8.55635611226744    6.87137162894770
H         3.06530763919982    9.48062933613780    7.37594182998825
C         1.41203108728653    7.29075770524262    5.42615011253228
C        -2.58845792691801    4.17351237641089    1.42842986230857
H        -1.82046979670690    3.54372839228712    1.85428573335078
C        -4.61644976237261    4.41498386217219    0.17807154397812
H        -5.43884244387693    3.97674184257731   -0.36864769259747
C        -4.53298291566460    5.79151407089093    0.31691815720723
H        -5.29429387990830    6.42447549478825   -0.11651696898422
C        -3.47793210236864    6.36065145045232    1.00610410157885
H        -3.41777821900963    7.43472551418476    1.11076422814708
C        -0.97812910264405    7.89791074034830    1.77913263798857
C        -0.76089301464716    7.99046770989645    0.40652283390828
H        -0.69308071455561    7.07950703142692   -0.17049016178099
C        -0.65433143188393    9.22131543254258   -0.21048422392111
H        -0.49005726945829    9.27996204824273   -1.27713089043058
C        -0.75740443197205   10.38202947103795    0.53997381835200
H        -0.67008457352019   11.34699629489920    0.06227635620341
C        -0.97710516219112   10.29888325256989    1.90380482168706
H        -1.06577167300337   11.20184418920057    2.49135866933585
C        -1.08837652378944    9.06537338320084    2.52306454316108
H        -1.27236354236033    9.01937755070769    3.58594648304729
C         3.41061067381013    1.16006649886629    0.58701853368694
H         3.95232770929741    0.94090026694401   -0.33694199873884
H         2.43921840012563    0.64592807022316    0.55045914880473
C         4.20446820017794    0.67172024324467    1.79628397585376
H         5.10335184295603    1.27121002637492    1.91985933050328
H         4.48921643399540   -0.36553727299590    1.64112945303739
H         3.60982624421846    0.73362346635806    2.70504152353167
C         0.63641830485381    1.82511868855431    2.54270695547085
C        -1.20594276172066    0.71256552088183    3.47748768047102
H        -0.91976671667079    1.13293935441836    4.44821457856964
H        -0.76590189760666   -0.28874222738137    3.39774642780308
C        -2.71410184966742    0.66499610736396    3.31765724710888
H        -3.12716711767171    1.66869331149525    3.37380012466551
H        -3.14471110725299    0.05462605137104    4.10622140854483
H        -2.97557582304361    0.23696605731425    2.35354612934672
O         0.34476948936386    7.15854951846067    4.56636625155328
O         3.22047097951199    2.56208051512271    0.53954751109323
O         1.33099688698502    1.41086686368020    3.44553963713713
O        -0.67726577613359    1.53431684405540    2.44043449646786
H         3.41296504962785    5.10989515774489    1.63437513427095
H         1.67477278418073    6.17110856183436    0.19419095230828
C         2.78853676297422    2.36524871836894    5.76170615242794
H         1.81227543256133    2.12058082258234    6.15073395706468
C         3.84968447174600    1.50019354855709    5.96479443452520
H         3.69564887401306    0.58783679178851    6.52232151085590
C         5.10128686813372    1.79131416535020    5.44981353205310
H         5.92405058026755    1.10891575477809    5.60609700232971
C         4.23651668077639    3.81823211561420    4.51496493852088
H         4.37461895739347    4.72442727972552    3.93836163068782
C         1.70502250553726    8.48475393614794    6.06211806059601
H         1.06422128861423    9.34230887254715    5.91869350071596
C        -0.91170583983002    6.98205300576402    5.06250624994760
C        -1.29396416991119    7.16605313702878    6.38014823644814
H        -0.57007339529030    7.46158891978518    7.12543046920120
C        -2.61679266490721    6.94441193431909    6.72903775318261
H        -2.92206447924312    7.08564740361171    7.75497832109872
C        -3.54022470953396    6.54049167483751    5.78093826840006
H        -4.56732387939359    6.37192405669319    6.06756795836513
C        -3.14817955995808    6.33672088524502    4.46719969743728
H        -3.86166987532133    5.99638814505185    3.73112763939611
C        -1.83414392984740    6.56129633323933    4.09625652346989
C        -2.49120323942386    5.55311910891528    1.56257168107663
C         1.52011969818454    5.17346313691147    0.59871928618711
C         2.46582045529950    4.61466593096778    1.44571101217655
C         2.46527533808034    3.11349021171243    1.59311178769392
H         2.87341098235818    2.80060259679781    2.56207342146999
C         0.36761959254719    3.00347034452535    0.38659732173935
C        -0.46364660956810    2.12564949740376   -0.28749937766703
H        -0.60804940488206    1.12340476375761    0.08488783190858
C        -1.11615777620753    2.53813851172501   -1.43737135767564
H        -1.77061549280887    1.85288316101903   -1.95529573716239
C        -0.91486034698730    3.81553924895950   -1.93180264460153
H        -1.41683395340065    4.13093071649103   -2.83477613222323
C        -0.05967868406097    4.68264971936013   -1.28001035039277
H         0.12360808785518    5.66643311459334   -1.68949455756731
C         0.58869494650461    4.30132676273212   -0.10791304918598
N         1.07456943278035    2.65323430552738    1.55893685531622
P         1.63579096669200    4.70374945518393    4.62739054769659
P        -1.05483906517165    6.20880187790514    2.48403268437999
Ni        0.91089871788774    5.18181697671442    2.57193663510571
C        -3.64431260392520    3.60547654749496    0.73961980651264
H        -3.70173513230562    2.53227171532406    0.63436430894397

