71
CSD_code = YEYWOQ | q = 0 | S = 0 | Stoichiometry = C22H40Cl2N6Ti | MND = 4
Ti        3.54369641566906    3.15224652326964    5.84101237747177
Cl        4.96751513467077    4.53154096381033    6.82359121677145
Cl        4.02624469925985    1.22384208753444    6.81198781465876
N         1.91838047515593    3.80995620579036    6.11151921575210
N         0.19321645488141    5.42886077544317    5.86940887465412
N        -0.26769622442879    3.58522578647157    7.02014310992028
N         3.70375723791231    2.91660288163194    4.08895325957788
N         3.25164970599966    1.86423862678071    2.00549281061686
N         5.01635826388091    3.20720017158839    2.12609098529340
C         0.93416028656427    6.43555212699674    5.11501411516369
C         0.03322164191423    7.63430757214187    4.80769848963765
H        -0.82423041016272    7.33731904238388    4.20826875989345
H         0.60324929875049    8.36776082177649    4.24374480233055
H        -0.31391771319253    8.10833663641474    5.72251131930800
C         1.41773766741802    5.81596786127878    3.79753169711762
H         0.56915836961784    5.45740408876375    3.21859141123331
H         2.08872585974583    4.97788297582815    4.00604543443647
H         1.95116187504625    6.56136173254967    3.21384689017581
C         2.13296072735421    6.90273081429984    5.94862368883506
H         2.79355989306204    6.05827175456606    6.16062124977059
H         1.79407741867018    7.32971506551357    6.89041781930441
H         2.69480474942035    7.65742648452366    5.40490480191702
C        -0.09043079882833    2.30759001725173    7.70623102880108
C         1.02255992296326    2.45613455491971    8.75104715509288
H         0.75052472902056    3.20816946687331    9.48966665243251
H         1.95539045678271    2.75932073885727    8.26575462675402
H         1.18803662319104    1.50840073712576    9.25628745359947
C        -1.38811828029387    1.89807867312514    8.40670772912333
H        -1.67735897623684    2.62878521454256    9.15828720018948
H        -1.23238401893237    0.94514186947783    8.90527469265263
H        -2.19849599578533    1.77786042847256    7.69141893839350
C         0.28567085845623    1.23779087123914    6.67352431956410
H        -0.49604979601076    1.15215031130000    5.92098944645944
H         0.41035622374362    0.27665773440668    7.16504207711941
H         1.22659329584100    1.50601247755529    6.18435365330791
C        -1.11132936415318    5.49975831849829    6.30773435911816
H        -1.75306758320576    6.32808606982218    6.09765622207432
C        -1.39041759172907    4.38304961977578    7.00414619221902
H        -2.30733334237188    4.10852693252809    7.47977831624330
C         2.08724870760604    1.07869442495949    2.40203719078912
C         2.50379163101791    0.09272089640755    3.49976728102268
H         3.25978071659978   -0.59343722847560    3.12324658928212
H         1.64409545424434   -0.48248673905677    3.83263091375810
H         2.91642972037994    0.63679711617642    4.35342848432706
C         1.53989275633265    0.30040558996349    1.20316658791747
H         1.23547025344135    0.97369189077328    0.40519603052943
H         0.66855492709412   -0.26660313499528    1.51992866775661
H         2.27707461216831   -0.40110882757079    0.82038886256756
C         1.00176951640264    2.02900279017434    2.92337792144687
H         0.74147229643715    2.75505646967589    2.15588384027133
H         1.36741356930427    2.55797231066218    3.80655920859532
H         0.11196627062032    1.46423732505164    3.18783434009111
C         6.05030857284142    4.07874952892335    2.67937843687793
C         5.38846629931394    5.35084821397784    3.22440249782913
H         4.84228355099458    5.85764694893868    2.43074501996814
H         6.14680527053358    6.02311103572731    3.61660271638383
H         4.69406279870410    5.09885842880844    4.03149535109674
C         6.78097246458186    3.32968761554137    3.80089006426449
H         7.27158039505181    2.44222315451977    3.40435496545454
H         6.07044880425047    3.02265834925125    4.57535607679061
H         7.52904079724215    3.97449538383187    4.25456404545778
C         7.05679339479570    4.46232055894569    1.59201260502439
H         7.56024460213145    3.58397251989267    1.19491411847401
H         7.80983630927094    5.11546725442110    2.02483807583216
H         6.57037994744411    4.99670547217825    0.77909106255789
C         3.86799420052871    1.88968910401866    0.77345122394316
H         3.51054782286240    1.33738705633566   -0.06875565986263
C         4.93641663626260    2.70404222629648    0.84647803187901
H         5.63291821982112    2.95684605191277    0.07626899407531
C         0.74075355356015    4.23049423925499    6.31342734677862
C         3.96694773893402    2.68318893843412    2.87171890196839

