61
CSD_code = YEYZEH | q = 0 | S = 0 | Stoichiometry = C16H36Br2N4P2W | MND = 6
W         2.73992740301199    2.91325910415249    2.90744532589908
Br        2.98763422702441    5.34283239480592    2.27782285225427
Br        0.39840364607173    3.45348172646655    3.65361973988153
N         2.23804614463841    2.44281306289121    1.26906067456935
N         2.71932469354924    1.24786448299259    4.00173947924236
N         4.73193442686328    2.81261892404775    3.00442203784375
N         3.38074505096703    3.40975775456847    5.11115531434796
P         3.45254285891023    1.65893778286965    5.44681016000634
P         5.05775773311799    2.99770889075892    4.63901981301707
C         1.59712776178523    2.38604515349460   -0.00194875776542
C         0.10791149161883    2.75466912009550    0.18159716381891
C         1.70138611504213    0.98241841384233   -0.63299603691172
C         2.22760585818242    3.41261581042627   -0.96937614768132
C         2.34351577374767   -0.12994502885336    3.69805314708219
C         3.30790088689366   -0.64441060059742    2.61812301473748
C         0.90999496708663   -0.09406672988313    3.14877949464843
C         2.40204719657007   -1.04103940824854    4.92627160950242
C         5.88646745054664    2.78660326862602    2.09932450355566
C         5.35240081098695    2.80953482370388    0.66386231740569
C         6.77562342801874    4.01882665375879    2.32048504409233
C         6.70188413373917    1.50658732917405    2.32887252639474
C         3.18705809200826    4.32221438407153    6.26883176640391
C         1.82060614390296    4.04665756590778    6.90397657858084
C         4.27471083614179    4.10169229844056    7.32776205862689
C         3.25779333637331    5.76592482225970    5.76477514648822
H        -0.40767863231402    2.72115766472791   -0.77478003774267
H         0.02761281742137    3.76223681053152    0.58964003354430
H        -0.38102164582989    2.06296856454243    0.86615961744038
H         1.23137248251515    0.98424834706886   -1.61312166718982
H         1.20514334111546    0.24215219982445   -0.00897951395557
H         2.74593372632920    0.69693168310104   -0.74907259077334
H         1.62301398378104    3.48763926630195   -1.86967991391364
H         3.23344279423374    3.11065248565310   -1.25007744692455
H         2.27059781599246    4.39199795576737   -0.49595600590316
H         4.31166504554831   -0.73545643224057    3.03340738105712
H         3.32513408302053    0.07368835986732    1.79221575861344
H         2.99389376961469   -1.61569277358076    2.24421671673336
H         0.86881456620245    0.60977187582931    2.31250539105654
H         0.21881748574048    0.24034781743149    3.92189862323462
H         0.60294782538624   -1.07868613834148    2.80495889549403
H         2.08448197060146   -2.04561862634223    4.65820578488976
H         1.74411995426355   -0.66293022839803    5.70749525500063
H         3.41813789858195   -1.09014245003081    5.31890185353175
H         4.61421155875446    2.01537065212460    0.53318022637359
H         6.16442365323651    2.66055985870799   -0.04421315053807
H         4.88162359739663    3.77068594766067    0.45610304627220
H         7.54364223051914    4.06996741191083    1.55312781518490
H         7.26034956025332    3.96974705379664    3.29517913620649
H         6.17283142471019    4.92515023425552    2.27341188977570
H         6.08456898441564    0.63081040689390    2.13676096418157
H         7.05285598843649    1.46885116641364    3.36080079203971
H         7.56358854784905    1.48132080158545    1.66672606149202
H         1.73706500546827    2.99176910557103    7.17194384556962
H         1.00642116872381    4.29826559484600    6.22919796078497
H         1.70944237363031    4.64035652518325    7.80715240695308
H         4.29637831763870    3.05625546043062    7.63849323977237
H         4.07228383251842    4.71642452406276    8.20105033488830
H         5.25515976399147    4.37422889975726    6.93822333148239
H         3.23813072804885    6.45363029736243    6.60571162658442
H         2.41426877545785    5.99949354239357    5.11719607896834
H         4.18157473997126    5.92924413557992    5.20732743378140

