27
CSD_code = YEZHOA | q = 0 | S = 0 | Stoichiometry = C7H12Cl4O3Ti | MND = 6
Ti        0.07716945832506    2.70446932021530    2.37211196432615
Cl       -0.02638818867486    4.89385185369308    2.99304068144333
Cl        0.72245050209709    0.57019188676162    2.27353070014557
Cl        0.02714274583941    3.08250456266493    0.25038055421566
Cl       -2.02761637697083    2.32039957713910    2.64594285233532
O         0.33558519158993    2.44364259285766    4.50433536624379
O         2.11855329777972    3.08804099290860    2.40942763750172
O         3.19228435746428    3.93194557697078    4.16681183246031
C        -0.37905860961285    1.41045921103625    5.21118771644211
C         0.39559800063547    1.19531080486694    6.50365420446482
C         0.87476787753748    2.61319579250382    6.79895628367701
C         1.21168303953246    3.14062100671926    5.40052871917903
C         2.67888204170841    2.88116668456501    4.99398493713226
C         2.82789191237899    3.95760752701488    2.90093286204023
C         3.35501879755391    5.12015712739765    2.13502949694119
H        -0.41660246032071    0.52689293984455    4.56625946091453
H        -1.39747501656826    1.77218072726792    5.40760408065476
H         1.24168785174508    0.52870327997919    6.33617949676053
H        -0.22916820924922    0.78588518936289    7.29261622526639
H         1.72386460914001    2.65124426326902    7.47596164377275
H         0.06066640613758    3.20067736165835    7.22346112412147
H         1.01275708669644    4.21785616892895    5.29967693527522
H         3.33727733181142    2.87898480143428    5.86368277482058
H         2.74532293569430    1.92372433291271    4.45757029896892
H         3.62659875285455    4.80725577944371    1.12910540852224
H         2.53355801947866    5.83581251118008    2.05016768842702
H         4.18934864539634    5.58471812740490    2.64985905394478

