65
CSD_code = YEZKUM | q = 0 | S = 0 | Stoichiometry = C37H8CuF15N4 | MND = 4
Cu       17.27334759070288   14.08194356590966    2.99035439335234
F        20.94580837161925   17.18954235368748    5.35858072805679
F        22.64917378668301   19.28345069024977    5.52338649731998
F        22.92004659065685   20.99658047577369    3.41703120009743
F        21.48347097889612   20.57462532447547    1.13532625300191
F        19.81647228415181   18.45263209984929    0.95518661518358
F        21.27760063964330   11.77708093751776    5.81954602506454
F        23.18528489916660    9.91370868715829    6.24303692746800
F        23.53270678675555    7.87666286148840    4.46016546305631
F        21.95159517358800    7.74201732851860    2.23759369348853
F        20.07796540133311    9.63179848417590    1.78874329650844
F        14.10636093471832   10.01595707272752    4.98605980884258
F        12.01825452055987    8.31462701640865    4.93534660504376
F        10.31440842593371    8.28762078273579    2.79736809858223
F        10.77039419306580    9.96467830849974    0.69179029712472
F        12.89210451903372   11.62439689292053    0.71098193816247
N        17.16185617392760   15.88311321032059    2.77058961223218
N        19.08375279556296   14.17896500228703    3.26330478855725
N        16.40602110556868   10.11683940573295    3.33638991769875
H        15.79328098525581    9.31714130223963    3.35850035681362
N        15.48091667206634   14.10528010189011    2.71939813465054
C        15.90663487946536   16.37100814164757    2.56326481386928
C        15.98641004388081   17.78082018098089    2.47164385282103
H        15.16024914680440   18.44427805119086    2.30824803381801
C        17.30576131078902   18.11664395731895    2.63816212770944
H        17.72436603963109   19.10394810023291    2.63431342430669
C        18.03700804015552   16.90648517694265    2.82109862302595
C        19.39163961911556   16.63429982882620    3.06573290226846
C        19.83969150709905   15.32287291788468    3.24441786891751
C        21.22214945231099   14.96531015185300    3.39013835400692
H        22.04016262757201   15.65837285573035    3.37525972488981
C        21.28618530474632   13.62287069698423    3.51572366787383
H        22.16677299593871   13.02100677356947    3.62196990250564
C        19.94141751836997   13.12049863280289    3.45834803686496
C        19.59252806889263   11.78660239103533    3.54462976467074
C        18.24251876195083   11.36396017142412    3.41087199724425
C        17.72886995943584   10.06597566001200    3.51073281447809
H        18.23695639333354    9.13953018611246    3.69648802574071
C        17.14544018343538   12.22638853581755    3.18225178750290
C        16.00470488498732   11.42048928094928    3.14488385641808
C        14.67484414442680   11.83875036714672    2.89323074129697
C        14.46279851729758   13.19674152848336    2.68634124775746
C        13.24114320979490   13.91794409481022    2.48840422200595
H        12.26407402033799   13.47905868793720    2.43904613403853
C        13.54844950489288   15.24228435197160    2.38724061166047
H        12.87785867126002   16.06425937177215    2.23336566385382
C        14.95527622193602   15.34943007900522    2.53516777072562
C        20.33785305496200   17.75853174284335    3.14981429907730
C        21.08380827356186   17.99924556052917    4.30475168496334
C        21.95328679983352   19.07929633094513    4.40330529869793
C        22.09076075370693   19.95668116662090    3.33115093147125
C        21.35496303384875   19.74087275139513    2.16952351716023
C        20.49245648998720   18.65336869979771    2.09071235154325
C        20.63057183170854   10.77130303288952    3.78353346774813
C        21.44863422436974   10.80983923428036    4.91508664131784
C        22.42448470666430    9.84753194698633    5.14940411067605
C        22.60181708460346    8.80509771040747    4.24359802259516
C        21.79390966446003    8.73830982145281    3.11201857667928
C        20.82588949206300    9.71182440917811    2.89594560919977
C        13.55515574486103   10.89441714590733    2.85968594338513
C        13.30006132578553   10.01210367486437    3.91370581789165
C        12.22215938654994    9.13619030048331    3.90397701547198
C        11.35312204502083    9.12091172360281    2.81652911490169
C        11.58621252075640    9.98134292858651    1.74632440615795
C        12.67271971051119   10.84723974222730    1.77467657048149

