131
CSD_code = YEZMIB | q = 0 | S = 0 | Stoichiometry = C50H72N8Zr | MND = 6
Zr       12.21308284276300   13.40718282235739   10.88227589285943
N        11.16998711702075   15.36103649070425   10.70855974456899
N        10.38637046410436   13.60312437045198    9.59544295893546
N         9.12889625323701   15.62134367808845    9.37213817589724
N        10.61980798981548   12.92005545863687   12.51249567793734
N        12.08806469508554   11.41117965554959   11.81250176663655
N        10.33632171394135   10.58647104966468   13.21441915289894
N        13.42327729407863   13.06441491481305    9.22186165224176
N        14.01184195801775   14.20198750183259   11.58686790605850
C        10.22958523041503   14.87505343929097    9.90904008552257
C         9.40333021857018   16.35814477366798    8.15672502744346
H        10.08833012318463   15.78543176056328    7.53752359234990
H         9.84046642495811   17.35164805004291    8.34254426248033
H         8.46512162478100   16.50449853933637    7.61388684462757
C         8.24519557843485   16.32393781959901   10.27704203479673
H         8.22051016156348   15.81171297114192   11.23654677465195
H         7.23620458744587   16.31190161550086    9.84969392636548
H         8.51961567260747   17.37429258550724   10.44645342769409
C        11.27737437532265   16.77529579009075   11.01862710433366
H        10.65997829125567   17.39109968384021   10.35534270650559
H        12.32090731203726   17.07462773177016   10.86425883308971
C        10.91921435419866   17.07772281033143   12.47490606314782
H         9.87748122636682   16.84118665938436   12.67881714408544
H        11.08682379157107   18.13159833246451   12.68693505120644
H        11.55720558272261   16.48727801135883   13.12906715689895
C         9.36007334216054   12.77062847798608    8.97209918648183
C         8.99731763081736   13.19169488875807    7.53906153972033
H         9.90132497940576   13.40117568236188    6.97254213051514
H         8.36229046557225   14.06978384342390    7.54299967476141
H         8.46168207334750   12.38051622171563    7.04961245077962
C         9.95837646470630   11.35509905496515    8.91316418826011
H        10.53151205234608   11.16518988261459    9.82519040366932
H        10.62082094715574   11.28354820352594    8.05707681261091
H         9.17086204563443   10.61016688676486    8.80832189685712
C         8.07952610535845   12.72862395687452    9.82251053005750
H         7.34286849875855   12.07980676974305    9.35234568277456
H         7.65516469283866   13.72248051292864    9.91724950453129
H         8.30636227195948   12.34218209168142   10.81267631217403
C        10.99035244098811   11.65626480443170   12.51923664103556
C         9.24118873784490    9.94146874384817   12.52521084817977
H         9.44755340194071    9.90706101691880   11.45848836202375
H         8.27493230882596   10.44805017838976   12.67771282818514
H         9.14216998481865    8.91938501374353   12.90317778145001
C        10.10993114852814   10.72308655741363   14.63679910069834
H        10.91981770757945   11.30095968716691   15.07562478643104
H        10.11632604451141    9.72263058678126   15.08172344209296
H         9.14989688158654   11.19125252046349   14.89366978020372
C         9.39237080439165   13.39819576408902   13.11023468304801
H         8.66150885500053   12.59631272403021   13.28058078340642
H         8.94337280500987   14.10380415922747   12.39901688051210
C         9.63667820856212   14.14646827108357   14.42584572838605
H        10.00443562105686   13.47528112984020   15.19758507772169
H         8.70770487440341   14.59564777525231   14.77210214231666
H        10.37251963198931   14.93074174102955   14.27152403761402
C        12.91977911962759   10.21608040908281   11.97341796564178
C        13.16076257208769    9.83794799910553   13.44512395417532
H        13.44360176598024   10.71730800523378   14.01790207998150
H        13.97214087495848    9.11560591869634   13.50178958834557
H        12.27434414159817    9.39807836525156   13.88658720512190
C        12.34165547891793    8.99289049554693   11.24144009739232
H        11.45072724617529    8.63630305184289   11.74831166456481
H        13.07564861564348    8.19023016887262   11.23064923968854
H        12.08458271686664    9.24162436088420   10.21465803921611
C        14.28018800962793   10.59483243086569   11.36927667097933
H        14.16539043063977   10.92254571573268   10.33831784723287
H        14.96728023145004    9.75198681174735   11.40620331932697
H        14.70715516771656   11.42096065514923   11.93700448572037
C        14.76213984205014   13.39748077832227    9.48394700906762
C        15.79172430711525   12.98920877393835    8.43870899040704
H        16.76205683472650   12.85247735892136    8.91604279448844
H        15.49137936003878   12.02871312138848    8.01722458603924
C        15.94739002334486   13.98164085152182    7.31706054897024
C        16.44957046200674   15.25528024692479    7.56475631222452
H        16.72704871986187   15.53073157831486    8.57137359612805
C        16.59909838820979   16.17128247890181    6.53864227530864
H        16.99023924788678   17.15630209000393    6.75102909943500
C        16.24758750574567   15.82909079679011    5.24407674245107
H        16.36041414026921   16.54478514710177    4.44289823302410
C        15.75650157628852   14.56158225776499    4.98421178317490
H        15.48315614721508   14.28279073030398    3.97699493049873
C        15.61294997371688   13.64648069193032    6.01127608624276
H        15.22744016069494   12.66102591491531    5.79492505297323
C        12.97943827174773   13.14904645053655    7.89100907956744
C        12.76324129262951   14.40402562750762    7.28399713290383
C        12.30709125707751   14.47719688814018    5.97754553352734
H        12.14505426936138   15.44822867935208    5.52918669324633
C        12.06951057039064   13.33251243396779    5.23825302096918
H        11.71557030523782   13.40232429578914    4.22042863898726
C        12.30032321619206   12.09755206104689    5.81537836691693
H        12.13675232748798   11.19685006089176    5.23882349762146
C        12.75581310099155   11.98997241791011    7.12128095659144
C        13.05084413580937   15.66138744314709    8.04599586223909
H        14.09728255935099   15.93883641362260    7.90940831847686
H        12.86130530513273   15.49568320210159    9.11289449496924
H        12.43953263202118   16.48499900951023    7.68105954497283
C        13.04904698916739   10.62923809927407    7.68973702036551
H        12.42412648290351    9.86828775363214    7.22479467696946
H        12.88023730983881   10.64174982754613    8.76527954864021
H        14.08923178409124   10.35354398506989    7.50723157231438
C        15.06651389171194   13.96270576296745   10.68342522144179
C        16.48380172809479   14.15714615231694   11.21570333073189
H        16.53636868635922   15.10047179550327   11.75992397974910
H        17.20037076673518   14.19328852748419   10.39628483950499
C        16.84860630432736   13.04783339567748   12.16461366197405
C        16.63960230564243   13.20287286756041   13.53134010680158
H        16.25727549008508   14.14194681547853   13.90575637374949
C        16.92443625477036   12.17553331590387   14.41372322667635
H        16.75133757795169   12.31369796788662   15.47165146756175
C        17.43883250346599   10.97848034195716   13.94638165106875
H        17.66620962795355   10.17751682084128   14.63475558934967
C        17.67326843964965   10.82119028992060   12.59055504359414
H        18.09167283444564    9.89621956531485   12.21857988803202
C        17.37831808126667   11.84540384429921   11.70892176709540
H        17.56366199604728   11.70606532902742   10.65398369511734
C        14.08256644448742   15.26932254720422   12.46975596578393
C        13.67715331165698   15.03366705037570   13.81016584210338
C        13.69858810170268   16.04491600632035   14.75186514227723
H        13.38802898098857   15.83124953503745   15.76618613156940
C        14.13515549571096   17.31776974382752   14.42077434440135
H        14.15372105827023   18.10312038065369   15.16112912560986
C        14.56063415053778   17.55699026664380   13.12889294339628
H        14.91312875788323   18.54343543696492   12.85797150012811
C        14.54973948027382   16.56977371319628   12.15268788287544
C        13.27857311721365   13.64220509043480   14.20439567709550
H        13.17955101610105   13.56632166628965   15.28702210832088
H        14.03899212660547   12.93440024268073   13.86401316918958
H        12.32904326739653   13.37714991209864   13.73171751943662
C        15.02236481844774   16.96804372127965   10.77812163939825
H        14.46948430661254   17.84036161265504   10.42728549698215
H        14.89184031898665   16.15822768820592   10.06858660549355
H        16.07726797812476   17.24713707697116   10.80281872667473

