96
CSD_code = YEZNUO | q = 0 | S = 0 | Stoichiometry = C37H55BrNPPd | MND = 4
Br        0.81020603135718    4.87525349855737   15.03229363446502
Pd        2.62694383799318    6.39421424800260   14.64701614275309
P         3.93761423293332    8.27679824070206   14.23219020611074
C         2.75964315873343    9.68200877456349   13.70277408189223
C         1.47752760385319    9.41050471370875   14.49799985418613
H         0.65325173881494   10.00730199558930   14.10936568021831
H         1.62210855439465    9.67896165618691   15.54217470305629
H         1.19026319369227    8.34815781248940   14.44106069034118
C         3.20483993311823   11.10911735501455   14.02316926821820
H         4.10382614007636   11.39774961962579   13.48850428542195
H         3.37041898911505   11.24414373395083   15.09004825416683
H         2.40953338987672   11.79171092125442   13.72278075022334
C         2.44672427598933    9.56026084041034   12.20977169386507
H         1.56913455013587   10.16131050214669   11.97211253578539
H         2.23192723425203    8.52699086511624   11.94228931282001
H         3.26394340646504    9.91864149591086   11.58992226395831
C         5.51747060566195    8.34451550171586   13.14727031217878
C         6.68056123936296    7.74071935176658   13.93815159651342
H         7.57602286304460    7.73142238172349   13.31721569525657
H         6.46007291645815    6.71303706058700   14.21250049601303
H         6.90187511694252    8.31061372099019   14.83898966592216
C         5.22563882837790    7.41655651305566   11.96366806526863
H         4.40752069146586    7.78716340187736   11.35128748338931
H         4.95672906297117    6.42376302695683   12.31908888582773
H         6.10902694579710    7.32550242001689   11.33262870636055
C         5.96536109152226    9.69845794885976   12.59564713135928
H         6.28515797434846   10.38390850342123   13.37492998117061
H         5.19570857695471   10.17397838590569   11.99707599220562
H         6.82449658797386    9.53228435172439   11.94447086888420
C         4.47213339944697    8.83147485411247   15.89879409255164
C         5.31274435731704    9.93303066471915   16.06532999765748
H         5.63659225037675   10.48847718808052   15.20161502768811
C         5.74649823027771   10.33582393620593   17.31198519670020
H         6.39379508535474   11.19544949079915   17.40579834838508
C         5.35446317016450    9.62612617025795   18.43464729599522
H         5.69641601013836    9.92006496963189   19.41583581896615
C         4.52776375210719    8.53191776210531   18.28810245199100
H         4.23177203432209    7.95978584431068   19.15624504604513
C         4.06461979401727    8.12214414513602   17.03576989227704
C         3.20489243447195    6.90073136009692   17.09572668562149
C         1.94707399762765    6.98356372912724   17.73643963559413
C         1.24337407869444    8.30602650603301   17.94678734913629
H         1.83743004873423    9.09825219683992   17.47700975069947
C         1.12422049032044    8.64702570878835   19.43409575570502
H         0.59266074630864    7.86509754195692   19.97048320377504
H         0.57695956643377    9.57986541052837   19.55524354216175
H         2.10694695239669    8.76655903878302   19.88513926158968
C        -0.14472020792871    8.26601242835768   17.29744923654167
H        -0.09601868921113    7.78766761298710   16.32023311817213
H        -0.54288351579643    9.27174540229517   17.17937184205825
H        -0.83785195900089    7.69506571750713   17.90935009451121
C         1.34269541961534    5.83214888498554   18.21689703014799
H         0.37825863561350    5.90729295828903   18.69548889038224
C         1.93856275882190    4.58390262698995   18.11520114375150
C         1.28744875934559    3.37362573290582   18.73245886180161
H         0.26713072785881    3.64974930938767   19.01792838131358
C         1.20217622385416    2.20467718107992   17.75197427577952
H         0.60291963853433    1.40382110539471   18.17930176359640
H         2.18878096782633    1.80680350264483   17.52797137490735
H         0.74100025385121    2.53295964296694   16.82444917107693
C         2.05075697073076    2.96939120419450   19.99803508753165
H         2.08421299276177    3.79480378715995   20.70698336943664
H         3.07265860273443    2.68592383816976   19.75449325056654
H         1.56381498784356    2.12199597721168   20.47563935412963
C         3.16728532927152    4.50117576292846   17.48121740442239
H         3.65187625284539    3.54096319520810   17.39544795673143
C         3.80991258987980    5.62518181447033   16.97268285267291
C         5.22304176553246    5.46728919340521   16.44854314104316
H         5.56593765436338    6.43915276543400   16.07685311060971
C         5.24476579130165    4.46187003651403   15.29254429965903
H         5.06336857159170    3.45064500325122   15.64974124289505
H         6.20702178316148    4.47178436166025   14.78224897770160
H         4.44879135937229    4.72177424717392   14.57406738774126
C         6.16986492809489    5.04557672545038   17.57343756619004
H         6.16021002812183    5.78429758231016   18.37273541802817
H         7.18636547703982    4.96189026528552   17.19364172201257
H         5.87808475112363    4.08493960614816   17.99064007675623
C         2.16884232169109    5.96048201257117   12.73148415648687
C         1.07445949990509    6.51942439742084   12.09204541780446
H         0.39988101250617    7.18778757988618   12.61790810229367
C         0.77855735287235    6.19674699945255   10.77880095568003
H        -0.08620247502508    6.65871391362037   10.33165158422602
C         1.55438910782461    5.28002516388634   10.06160339267157
N         1.30643442324067    5.00823137859356    8.72405653543723
C         0.04080733891891    5.41749385470407    8.16040782309078
H        -0.81764337913112    4.97226098260735    8.67958003524806
H         0.00317120156457    5.11988452344362    7.11428232239395
H        -0.05052623610164    6.50400871828291    8.19918418074599
C         1.91196287188407    3.83546593020255    8.13675561490706
H         2.99893211096864    3.92964407312541    8.15229050402164
H         1.60204527052060    3.75554988743236    7.09665094667693
H         1.63037396964414    2.90982961025561    8.65522694173447
C         2.60674615911112    4.66665779950924   10.74824322479526
H         3.20768409535589    3.90688294474335   10.27625793692719
C         2.89891140891321    4.99426319623732   12.06159074722757
H         3.69909992597852    4.44355420299633   12.54990558513909

