54
CSD_code = YEZNOG | q = 0 | S = 0 | Stoichiometry = C17H27B9Ru | MND = 11
Ru        5.32907062349927    6.60552992830037   -0.81519790455631
C         6.15650267924998    8.17116161977561   -2.11978500621557
C         4.96506505009935    8.76895965530365   -2.77553673628921
C         4.33633624033915    9.88321234763040   -2.20945031509809
C         3.21090395893392   10.44280045043192   -2.78241945237963
C         2.68318460238592    9.92025256526929   -3.95174968065377
C         3.31636907845277    8.84618675886060   -4.55193225468417
C         4.44347341277692    8.28546632998452   -3.97974494775525
C         4.52845827931812    5.00667157110316    0.50447129787408
C         4.11863366849172    6.27299693916873    0.99773217092712
C         3.37878290549353    7.16948590801049    0.18617658195574
C         3.06916058067817    6.79135793586909   -1.13862718969210
C         3.48650186575559    5.54976347421052   -1.66264769541208
C         4.21257562469656    4.66408242434162   -0.83126923355835
C         5.19392582716077    4.01590211814267    1.41435795728960
C         2.83429089113182    8.44361766962548    0.76365636676846
C         3.06348839643623    5.12171584257235   -3.03936384806969
C         6.65589505296921    6.74305336469527   -2.56785289008787
B         8.85184184682074    6.79482284267490   -0.91681953226797
B         8.35981953730063    6.61008253931418   -2.60513211101974
B         6.54471986193103    8.42280232946450   -0.45678871334414
B         7.57977313787282    8.08628264708162   -3.12714103589709
B         7.49962099644949    9.18213186576607   -1.75788524264666
B         7.37513951193235    5.87444516464770   -1.30741240700780
B         8.31841046041687    8.41032849915317   -0.38443807794125
B         8.95370023960792    8.18741563947806   -2.03396103631008
B         7.37601939273617    6.95981892196478    0.08836172468976
H         4.73993429649043   10.31328695756018   -1.30672992787479
H         2.74341325427325   11.29821847682277   -2.31564877890135
H         1.80069577111115   10.35385260015016   -4.39790429080515
H         2.93412909412418    8.44320806304656   -5.47969252122250
H         4.92267563748262    7.46729212919202   -4.49778114050767
H         4.29568851328707    6.52013704742527    2.03960106929600
H         2.45535167334276    7.44680646044003   -1.74859087305185
H         4.46865798776745    3.67640144195329   -1.20222370483321
H         5.79471354812320    3.30971878834774    0.84614856362660
H         4.43976342557785    3.45675783060751    1.97167300377704
H         5.83995557085161    4.52364168713711    2.12673219046055
H         2.63757875370310    9.17244122593588   -0.02007998087841
H         3.53302602093008    8.87411492879596    1.47845607238395
H         1.89658730834698    8.24212742890296    1.28550037755053
H         3.82565413627546    4.50251193769116   -3.51170616409131
H         2.86357098417980    5.98473112752906   -3.67242130223604
H         2.14744591905152    4.53047791614591   -2.97705156141240
H         6.11453483589017    6.23483674270749   -3.36821922206150
H         9.80943922676935    6.26351478860315   -0.48695606758392
H         8.82628077597671    5.89462714487058   -3.41461188585098
H         5.88167221198032    9.15069351495778    0.20076294991266
H         7.42661434246423    8.40873712928270   -4.24715849725321
H         7.36572230459611   10.33468081470697   -1.95319876206232
H         7.31488271885951    4.69069380165094   -1.32973502398461
H         8.89128911630106    9.04221155073326    0.42614992323208
H         9.97467789310516    8.64870530187094   -2.38983157196765
H         7.37108095620227    6.59052581009344    1.21161633772187

