43
CSD_code = YEZRUQ | q = 0 | S = 0 | Stoichiometry = C12H16N14Ni | MND = 6
Ni        0.07113624461567    2.62577313754593    6.36666422369906
N        -1.46189750164163    1.55190705654481    6.19404313551893
N        -1.64900860158943    0.66143162653529    5.45992680012116
N        -1.96259369568851   -0.20544521014451    4.79227127661124
N         0.64375249505111    2.33914349181650    4.14068909775387
N         1.86843791887331    2.81559740765357    3.92836684246179
H         2.27923739459220    3.37942752523543    4.67061016030187
C         2.37073885761012    2.40948257423273    2.75412060012178
H         3.34825199698364    2.69447762885317    2.42156280672658
C         1.40783255596590    1.62313360081622    2.16097043762713
H         1.45705725313695    1.12778934867315    1.21368966206365
C         0.34633766045703    1.61343510030984    3.07189434633705
H        -0.59103458174880    1.09717995561884    2.98506972580404
N        -0.99115055536913    4.17464907205003    5.89472219706399
N        -1.65593274370596    4.17796884880643    4.74304982560816
H        -1.57472002095355    3.38795165843937    4.11694858765482
C        -2.35788012180786    5.31031786357835    4.58260333831236
H        -2.95459905825689    5.49369707457030    3.71229812347845
C        -2.13214192136874    6.07918363664916    5.70103607106690
H        -2.52787306195632    7.04838331086504    5.92092236319881
C        -1.26630101753504    5.31945579045685    6.49406085601523
H        -0.84490877486524    5.57305954774426    7.44730642063698
N         1.60412000157833    3.70001879323916    6.53514680876118
N         1.80218269668117    4.57438099090423    7.28556542886230
N         2.12574954089441    5.42556362082552    7.96875049270420
N        -0.50706407987921    2.91318745600354    8.59184072866163
N        -1.73504616981199    2.44246890108382    8.79821547261709
H        -2.14435758735049    1.87936572613777    8.05453534112920
C        -2.24186669853976    2.85245048174762    9.96915917712825
H        -3.22242653284228    2.57224836733551   10.29677014169232
C        -1.27870496500732    3.63534459752671   10.56642545182657
H        -1.33081920408207    4.13220715829752   11.51275154649805
C        -0.21224732099660    3.63907827362020    9.66129201440211
H         0.72691637904993    4.15136001749918    9.75256584565461
N         1.13386241734345    1.07873061560994    6.84150238073729
N         1.79262499962283    1.07467030673680    7.99672185520537
H         1.70310928308136    1.86128127211366    8.62601018482486
C         2.50030765731381   -0.05422702829332    8.15628641539451
H         3.09354123517518   -0.23756559721969    9.02897953252728
C         2.28505226980273   -0.81980686660163    7.03355685940640
H         2.68763428304024   -1.78575420856991    6.81184185513471
C         1.41898438155766   -0.06196377985028    6.23899535350096
H         1.00390669256585   -0.31433914499845    5.28266021514528

