40
CSD_code = YEZTEC | q = 0 | S = 0 | Stoichiometry = C13H24N2Pd | MND = 4
Pd        2.22765996814697    1.13105650179235    1.97141939830592
N         1.71054146967233   -0.44419403298730    3.54615597629603
N         2.52661780262051   -0.80018380133733    0.76872690428958
C         2.11686824815041    2.80370955715494    3.12884155422033
C         2.53164488518988    2.35467810112396    0.45922508823925
C         3.80738506620502    2.77581544605197    0.09183011733702
C         4.01357873878492    3.45594148626537   -1.09867203794753
C         2.94718396319184    3.72806514713519   -1.93871230879380
C         1.67194009864652    3.32422855476031   -1.58083036487584
C         1.46633477381999    2.64350469532520   -0.39102205700681
C         2.17723234505164   -1.73955322062113    3.05389185700715
C         1.98521846163516   -1.91509684571321    1.54279802689989
C         3.98859462388970   -0.81693194239872    0.77175831144079
C         2.03946060631483   -0.86255624789749   -0.60299428687666
C         0.25422592550922   -0.34267691441956    3.45701713901992
C         2.13272076525916   -0.26998427864433    4.92910988410323
H         0.45635490971682    2.34146608554517   -0.11686452113729
H         0.83536816656783    3.54242090924682   -2.23177178525023
H         3.10829454860808    4.25925365919135   -2.86667797606790
H         5.01005097688662    3.77757581331646   -1.37247068395363
H         4.65178879574115    2.58479294435300    0.75084568698723
H         0.95048967382145   -0.80446946589015   -0.61393882123035
H         2.42918529017103   -0.01388030535995   -1.16480282730082
H         2.34970323981319   -1.79497372752131   -1.09928949577508
H         4.35438069783168   -0.03532036864165    0.10344699269141
H         4.37985488357212   -1.78887629093313    0.42942577191717
H         4.36900495200132   -0.61067078245657    1.77745346576659
H         3.24030017580855   -1.83126187940294    3.29676274429543
H         1.64708164580743   -2.56365921249277    3.56680681220659
H         0.91699102117715   -1.99752397226922    1.32164598769972
H         2.45940025537578   -2.86732627925802    1.24205075381066
H         3.22150420000984   -0.29425297083869    4.99068144813240
H         1.79223214910640    0.69771409862346    5.29500099492437
H         1.72409276887300   -1.05919927713064    5.57955717360450
H        -0.24041704251328   -1.19792720010631    3.94596354013945
H        -0.07276749428871    0.57570902448660    3.94762051153455
H        -0.05998145321223   -0.29501769107223    2.40869519413011
H         2.88553480621645    2.67471603505730    3.90752091534812
H         1.12283865426232    2.81630065073089    3.60024603218279
H         2.27580643655873    3.76958799724344    2.64604888369251

