61
CSD_code = YEZVAA | q = 0 | S = 0 | Stoichiometry = C16H33B9O2Ru | MND = 11
Ru        4.20824587549319    2.04628981844691    2.90426712609074
C         5.83932044539702    0.59813853534436    3.68875112328699
C         5.50033680898278    1.47401295694738    4.74024763596078
C         4.15840125072520    1.64096278569725    5.13927218998954
C         3.11443117972798    0.91065302474754    4.51955843448621
C         3.45255508081519    0.04757180550577    3.44927816487432
C         4.79635075706553   -0.09483828939949    3.02945325495428
C         7.27281765133618    0.29154436694640    3.35933670549320
C         1.72930884405350    0.94813200215218    5.12449621563657
C         1.68630861119613   -0.04212430174324    6.29628729647427
C         0.61442905197038    0.63710874815974    4.12716438784506
C         5.26932954509946    3.65115618485232    1.77951695233301
C         6.71540313376541    3.59697898092071    2.25319644003471
O         7.42796150930875    4.76683681507923    1.90521464183706
C         8.78658226128245    4.69409646249259    2.22772998614242
C         4.12739709427056    4.26011869411197    2.68803482126172
C         4.43104424492451    4.81736967849743    4.07259219491018
O         4.61582406615922    6.21733548095315    4.03957849955761
C         4.79695737040990    6.77611092179188    5.30864459477149
B         4.65715905224816    2.41350636661600    0.76938191923855
B         5.02421049133503    4.03043653546498    0.12281186748083
B         4.67415841861865    5.22830370073086    1.34997999733312
B         2.62845379242197    3.50225452550405    2.38014376700548
B         2.91256824748662    2.30842957160301    1.08888329772561
B         3.51223965056339    3.21901573478766   -0.32522236756343
B         3.50977078492239    4.95927278337080    0.05652958129007
B         2.97508311076494    5.12503534057459    1.74309888875953
B         2.22211226527100    3.90636730734501    0.69771168017077
H         6.29052736119585    1.95873861958325    5.30684572716995
H         3.93343089984429    2.25606380849199    6.00534064795002
H         2.69416942991917   -0.57749243741393    2.99581597043412
H         5.04212163809470   -0.82413637394680    2.26502313677620
H         7.94129055268926    1.07632203548326    3.70898025916816
H         7.40794210696916    0.16353969305621    2.28644960798895
H         7.56728757434593   -0.64117549451691    3.84526193814144
H         1.55967822442798    1.95615817465273    5.52201365315326
H         0.70895367464877   -0.01883559817014    6.77221632422501
H         2.44000495079667    0.20336422802648    7.04190528517560
H         1.87348840868211   -1.05329884690527    5.94010532563267
H         0.72651573514509    1.23886122552473    3.22898833625794
H        -0.34968091873859    0.85905201167979    4.57840610227767
H         0.61946178594312   -0.41477160185113    3.85220021461312
H         7.21029503489693    2.73165362199185    1.78023062182657
H         6.79440563368932    3.45962985145675    3.34815267298270
H         9.23255928539846    5.63593183965579    1.91622487451397
H         9.28023863296296    3.86478471108449    1.70282929953439
H         8.93903056098910    4.56078019405842    3.30861329446676
H         5.33307084556017    4.35927771889308    4.52058590754398
H         3.58409693827767    4.59113823870242    4.74552747120058
H         4.92372072524198    7.84649489387233    5.16299499841876
H         5.68888014305696    6.36910391987121    5.80600026734713
H         3.92652454158066    6.59615185569667    5.95455965855997
H         5.40036705060575    1.55063892047876    0.43434100108393
H         5.98165579202513    4.14846943527052   -0.54642153559131
H         5.35614269344836    6.14103776109278    1.59783598517217
H         1.83625465950128    3.47291361741782    3.26182948745144
H         2.27141877584187    1.32665960576626    0.93684749695863
H         3.32551241329270    2.81444714269563   -1.41369569408633
H         3.30850295223909    5.78524719245728   -0.75448125903646
H         2.43959762520843    6.03707698265621    2.25114767965800
H         1.10237367658225    3.99899651564098    0.34918594564731

