46
CSD_code = YEZWIJ | q = 0 | S = 0 | Stoichiometry = C19H23BO2W | MND = 10
W         1.08023267092518    1.89230287275034    3.15977448293900
O         0.44696713505592    4.81943266334410    2.34693839473966
O         2.75946949383331    4.02747560002567    4.67683325036026
B        -1.91938080574095    3.19903735395711    3.75967574193821
C        -0.43704677880223    1.21193280089149    4.79773895136444
C         0.44249640854596    1.97965417839022    5.62651975609594
H         0.26071457074133    3.03960708194095    5.76447228322386
C         1.24624016767336    1.32331971217505    6.57892386395258
H         1.88137083058436    1.92324725518250    7.21647286311296
C         1.22431311721696   -0.04159771263443    6.73542046854567
C         0.31509546789016   -0.79115968286676    5.96075700418854
H         0.24852413448503   -1.85841856216198    6.12361892677500
C        -0.47804535938619   -0.19277936634951    5.02351240796552
H        -1.18998285959215   -0.78529687410719    4.46063999084486
C        -1.16500444739087    1.85030913380847    3.72484172861491
H        -1.64619516583731    1.10844578750937    3.07870786566822
C         2.09395936069596   -0.74088408482966    7.73347766721327
H         2.75778044452171   -1.44474532292129    7.23123576610301
H         1.48574607321906   -1.30603778413414    8.43898531087826
H         2.70000213417018   -0.02852636362503    8.28669902218416
C        -1.99648229771692    4.10682755846334    5.06811648189638
H        -1.99805144404770    3.49906446545087    5.97711814210432
H        -1.08116026085084    4.70769073226826    5.10384117009977
C        -3.17889101851523    5.07659098292621    5.14552631049134
H        -3.14165748815816    5.65520145358037    6.06710490507232
H        -4.12112802949785    4.53367157575140    5.12465120153913
H        -3.16491661845522    5.77028572766890    4.30969377912721
C        -2.69193360808614    3.67786549201608    2.45617395771345
H        -3.76538041670657    3.72713534494182    2.66249972279864
H        -2.39605130884402    4.70940881493727    2.24579039987991
C        -2.48194474669862    2.86208555924433    1.18039985235683
H        -2.96950696257361    3.33856536214000    0.33150103464430
H        -2.89567309207911    1.86064766630608    1.28305444950673
H        -1.41812280818951    2.77828158335376    0.96111977012639
C         0.60266534025341    3.72005109503240    2.66545540765456
C         2.14206142225456    3.21058887111823    4.13981506862556
C         2.90411755481483    0.53616747775236    2.57623788928860
H         3.88880532095533    0.53840948695597    3.02439350444419
C         1.85310400087683   -0.34117817852295    2.89407553130661
H         1.89244178740928   -1.12504112708473    3.63741163927490
C         0.80023419633443   -0.12614142993520    1.97498617340344
H        -0.08567510586800   -0.73988435146895    1.88061343266508
C         1.19670385541215    0.88438138060450    1.07338283822544
H         0.67654934311311    1.17264678848293    0.16975576444352
C         2.50440475418092    1.31948099856365    1.45171097694501
H         3.15683103787005    1.94847798310568    0.85682484965795

