36
CSD_code = YEZXAC | q = 0 | S = 0 | Stoichiometry = C14H15N3ORuS2 | MND = 8
Ru        0.32904883192414    3.25928046989138    2.55707303353509
S         0.56348872501657    5.60902987559223    2.72948116230483
S        -1.46125256148526    3.43694224926060    4.09539384074080
O        -1.12881435557913    3.08941192551814    0.13430919045043
N        -0.57006502360921    3.19933465185387    1.14719525841268
N        -1.00175431261610    8.58284819126424    4.12329912033177
N        -3.56348288746502    5.85802344111955    5.82407351759296
C        -0.78584048424539    6.06850227926529    3.74075022534115
C        -1.63215288947085    5.16393658156764    4.30650560778528
C        -0.92396026958338    7.45032885154358    3.95741971932956
C        -2.69464160485972    5.56186203622477    5.13594058466597
C         2.27753265912568    3.08255314157130    3.76702896076549
C         1.42648302076998    2.05572330973823    4.21586571736222
C         1.09174159267591    1.21797758836349    3.08120228518959
C         1.84292254993097    1.68594563330286    1.95550009532709
C         2.52095809751409    2.88102610620342    2.34949490556797
C         3.01495980679495    4.07904873531642    4.60865245185416
C         1.04667316191933    1.74027607236760    5.62755712642462
C         0.37369726788446   -0.09013527701544    3.18501611249113
C         1.98305063187015    0.98532724778505    0.63909945548734
C         3.55349331843026    3.61976625968473    1.56028835563445
H         3.06630592623364    5.04862966623423    4.11460644541799
H         2.53333235683711    4.21506990159281    5.57461417499115
H         4.03495420835790    3.72818822128460    4.77552134409734
H         1.27736597345202    2.56740607992323    6.29440041466402
H        -0.01740536650869    1.52119915267575    5.71131427348200
H         1.60069773280866    0.86045036196216    5.95882106820167
H        -0.45750394433342   -0.02172465464415    3.88394465370273
H        -0.01189108303641   -0.40736138147914    2.21870285400116
H         1.06158842027283   -0.85614748457407    3.54861288387150
H         1.08622804049821    0.42006823073391    0.39277491965574
H         2.17877413717755    1.69025969471228   -0.16661778850130
H         2.82100736567319    0.28753343251945    0.69204587289190
H         3.40097227956327    3.49118892998444    0.49111395270348
H         3.52929245300133    4.68412661629332    1.78749613182426
H         4.54519622507585    3.24050386233577    1.81540207240282

