107
CSD_code = YEZZIO | q = 1 | S = 0 | Stoichiometry = C54H48NOP2Pd(1+) | MND = 4
Pd       10.80458407014559    3.52050886611701   12.97126214582982
P        12.23904930937376    5.38349023151595   12.34349101206325
P         8.59745325681608    4.02619854576979   12.50710477518440
O         9.93414436327096    6.44764977379860   13.06186642414989
N        11.95679222421863    2.00790705791668   13.83842908885834
C        12.16411153520187    6.97738924540358   13.23260926173859
C        13.19942081823379    7.81445394139081   13.61261905742581
H        14.22720774346029    7.53757697052999   13.43076517228599
C        12.89460466022631    9.01894401584388   14.22665827114858
H        13.69256280445796    9.68270784755777   14.52131440811475
C        11.58052332438518    9.38865241031080   14.45597703218067
H        11.38291908503411   10.34155100233024   14.92091621810710
C        10.51826908365895    8.56602703096660   14.09181778303082
C        10.84443433520400    7.36596108611390   13.48044534585526
C         9.06819925993395    8.96685481016467   14.30065232545475
C         8.13947290677997    7.82240188840966   13.92514971748433
C         8.62564613627922    6.64717520717486   13.36267258059725
C         7.79561841505854    5.56273143809767   13.07118507982887
C         6.43070832327686    5.67237423371243   13.29800210076864
H         5.77977518071581    4.83852911954159   13.08021681147260
C         5.92132000151848    6.85373567524205   13.80562016012823
H         4.85959426660810    6.95455962942993   13.96836876233914
C         6.76596135292585    7.90380220060507   14.12541314454246
H         6.34043633620849    8.80474892437015   14.53842100071842
C         8.76290797908007   10.17366069120759   13.39750801033136
H         9.40873960588946   11.01022423914157   13.65012719158978
H         7.72943232949093   10.48725831283687   13.51641462944593
H         8.92704434837435    9.91462881284874   12.35300080176673
C         8.84340659612444    9.33927940107806   15.77487147250271
H         9.03576691412990    8.48292868635090   16.41880205177991
H         7.82119981688452    9.66662923112691   15.93824584669037
H         9.50473953551574   10.14749666836904   16.07230548154875
C        11.93641933609826    5.99998836874488   10.65639634189475
C        12.55025270362714    7.14807706309826   10.16452381165188
H        13.24387384774877    7.69945684417760   10.78390191303496
C        12.26781797447201    7.57544634096840    8.88054042008274
H        12.74369860092123    8.46460915019853    8.49503238481375
C        11.37433458661916    6.86957479224069    8.08793368590918
H        11.15675181201891    7.21318896527201    7.08805914744450
C        10.76063404509890    5.72856698204305    8.57750720550636
H        10.06010669181220    5.17888307368826    7.96596961082689
C        11.04359254938882    5.29494001270933    9.86026326087556
H        10.57097431209065    4.40543952678058   10.26540264860084
C        14.03569222297824    5.05093785976513   12.33948938157281
C        14.69286207061919    4.92854616980567   13.56324023417652
H        14.15441976080608    5.11914456095208   14.48398908473161
C        16.03256926484896    4.59096964266030   13.60962106433932
H        16.53504394377691    4.51109259608114   14.56239831297188
C        16.72898969410945    4.35753193046487   12.43406818772553
H        17.77459070646051    4.09355073189883   12.46990432812965
C        16.08074833086160    4.46633464395104   11.21509638102686
H        16.62053448127592    4.28613325670342   10.29786898007145
C        14.74021444400170    4.80665576707208   11.16496276201465
H        14.24266215376349    4.89276752537882   10.20870492836922
C         7.50667329486062    2.82748484812193   13.34659326272420
C         7.59886082621245    2.81018237900141   14.73677972108152
H         8.28650391577371    3.49352511315304   15.22336240188409
C         6.82095704253181    1.94320818602633   15.47780401488935
H         6.89300399222836    1.93885556110711   16.55526691274836
C         5.94763609125628    1.07957610787094   14.83351674483200
H         5.33819130023372    0.39957929099271   15.40888444167607
C         5.85634910417905    1.09056261084446   13.45211769461224
H         5.17445017715182    0.41990208956619   12.95122079848923
C         6.63207206344628    1.96169121898742   12.70453264608549
H         6.55204040199947    1.96741035581864   11.62698239221776
C         8.11562176567416    3.83970934845005   10.76782955668350
C         7.28975861642259    4.71733996432629   10.07978252247468
H         6.88797123716676    5.58739178459745   10.57862325347087
C         6.98825081010315    4.47070894645406    8.75030304115056
H         6.34571713717960    5.15170091957112    8.21279604442843
C         7.50536537437815    3.35672795282027    8.10993741721340
H         7.26314860792069    3.17011041333295    7.07463474215604
C         8.33930386214625    2.48338066231450    8.79338627205186
H         8.74661607982881    1.61748230888671    8.29357364215033
C         8.64971650248035    2.72795187469173   10.11638065504288
H         9.31519280047622    2.06509878524895   10.66613494345713
C        10.63400218047407    1.64757968024288   13.66928926277111
H        10.03981662427049    1.52191033219601   14.57296923993436
H        10.43176068549755    0.89345985937291   12.90893494874139
C        12.40690778567217    2.29682344828156   15.20578137380067
H        12.59096053131254    1.34916312412191   15.73181949575020
H        13.35654617360751    2.84194751430117   15.14056072846337
C        11.38725872043761    3.11543878384489   15.96280042219896
C        11.20594328101600    4.46496015330067   15.65277735023942
H        11.88424995910752    4.96494841990501   14.96303705920779
C        10.24518198457391    5.21200816075814   16.31722652308329
H        10.12508818588880    6.25917787449112   16.08040175071803
C         9.46508802024840    4.62580992183924   17.30155109070178
H         8.71765623067042    5.20804663026528   17.81853202753819
C         9.65925434458910    3.29493586638787   17.63168485997717
H         9.06995668213541    2.83963818857978   18.41263704733905
C        10.60831628340402    2.54137065780169   16.96053145131717
H        10.74944020498583    1.50203054345384   17.22228867949432
C        12.98596550870993    1.35296334495007   13.02438281521796
H        13.86076311436863    2.01532868079395   12.98380127665626
H        13.28728763285845    0.41583263977573   13.51412040077254
C        12.49748029027343    1.06402905928197   11.62767755673186
C        12.32006589591774    2.10704495867102   10.72162594099171
H        12.61375788258381    3.11871272949357   10.99415799936865
C        11.86714180822622    1.84683686714821    9.43762703105405
H        11.75128836135240    2.65914518596523    8.73566558010324
C        11.57890503092270    0.54769881486288    9.05292868872189
H        11.23557829462040    0.34354746601490    8.05035701757840
C        11.74826504767051   -0.49260437909820    9.95080560136058
H        11.53079831519916   -1.50695073448233    9.65364263828890
C        12.20279162259614   -0.23575855563103   11.23305291204494
H        12.33885286126341   -1.05262895900973   11.92786086753174

