39
CSD_code = YIBBEQ | q = 0 | S = 0 | Stoichiometry = C18H17IN2Pd | MND = 4
I        -1.43101341042874    3.67298413692804    2.70910818379685
Pd        0.78472733902679    2.56681511684660    2.15449167577171
N         1.27713519839696    3.66386954236077    0.31699773410438
N         2.64343253931310    1.79338662718724    1.70019771034394
C         0.49869953176625    1.34062102473035    3.70444089926511
C        -0.10792377521755    0.10858177764551    3.49215799274647
C        -0.19100271596672   -0.78819432872143    4.55194752300129
C         0.30999568945561   -0.44885024800723    5.79615668398096
C         0.88778958478047    0.79178528502831    6.00164580551182
C         0.98288801443862    1.70377436911091    4.95650944880582
C        -0.69180804198079   -0.23168519866512    2.14380565400682
C         1.57272366266108    3.07475901689362    5.17457763205067
C         0.47944764909493    4.44927847532960   -0.39484897499441
C         0.75838251438776    4.81156334530498   -1.70253526017998
C         1.91092027295671    4.31793686874199   -2.29543173664120
C         2.74532229125637    3.49961965467286   -1.55589573297795
C         2.40786696250211    3.19482990657423   -0.23685952361025
C         3.23895410428526    2.33510848799588    0.61889896921877
C         4.58463625088973    2.09494559185304    0.34063293684225
C         5.31714885428566    1.26501780854950    1.16726627186865
C         4.68176891030771    0.68909296856502    2.25909660263952
C         3.35161172481957    0.98675050680881    2.48893007064987
H        -0.65752834768079   -1.75118575176886    4.39727900110577
H         0.23923008445519   -1.15100944309486    6.61411825148090
H         1.26309058609010    1.06244251533602    6.97885800129194
H        -0.41460583139384    4.80568833214603    0.10396325996514
H         0.08346138646057    5.45669810073965   -2.24103830657549
H         2.15517723534346    4.56209496106752   -3.31840751729500
H         3.63401456972170    3.08555442182016   -2.00456017192535
H         5.05663023530894    2.57101532371489   -0.50361808602766
H         6.35993238555976    1.07302366635773    0.96658216317982
H         5.20831979289678    0.02689662253470    2.92700067598944
H         2.82820460053923    0.55880213763410    3.33626667103170
H        -1.78106022126999   -0.22259852264401    2.20246448082803
H        -0.38240026044108    0.51229587972892    1.38351555861525
H        -0.37627126311305   -1.22275064198259    1.81832245678102
H         0.86315870590312    3.69404714035390    5.72543023893424
H         2.49586148546238    3.01944030138886    5.75092773694492
H         1.78048170512623    3.57225422093271    4.20700501947484

