56
CSD_code = YIBCAO | q = 0 | S = 0 | Stoichiometry = C23H21N5O5SW | MND = 6
W         9.95711771269530    6.45559866393017    5.14470940308487
S        12.16996218449168    4.96676416636717    4.94443920284894
O         9.61262002220042    6.13497268313465    2.04299814671858
O         7.74064376578891    4.27039490449846    5.47216766952280
O        10.33447301013468    7.08810911032062    8.19150557588215
O        11.95063706943759    8.83120194251150    4.64883802415512
O         7.54951533354699    8.43322813661084    5.25441369718461
N        11.16510654388018    1.96194134015208    7.14316270943237
N        12.13615047184657    1.41334926247977    7.89740415054315
N        11.16497203757661    4.06215543873355    8.23473492586402
N        12.29412548366664    4.64507119234085    8.66944983227876
N        13.49051637172501    3.27075187427411    6.53647689052249
H        13.35498561541551    2.58844750037658    7.30543215120814
C         9.74772464354752    6.23088193359514    3.16962317223665
C         8.61273581881210    5.01107581003171    5.38344288189244
C        10.21982290007941    6.76192420856657    7.10490699531635
C        11.24762955102136    7.95699489977220    4.83530480787897
C         8.43518170878007    7.70880384726391    5.21538969104874
C        15.26363081960554    4.25392735342856    5.12781023705627
H        14.56704622026382    4.84908418288940    4.56440191528214
C        16.61499806883555    4.31925741571688    4.83747915124150
H        16.95147760377750    4.97143528573446    4.04579971214496
C        17.53141942642252    3.56054960487698    5.54485423239186
H        18.58284830006065    3.61771881949211    5.30835375074082
C        17.09010414845944    2.72492941220528    6.55973314986842
H        17.79720772249804    2.12957400154382    7.11776550275712
C        15.74575602674499    2.65262305371500    6.86024987395305
H        15.39824462808351    2.00601637292942    7.65338100029618
C        14.81756675736066    3.41887254181095    6.14909469955713
C        12.36255265619482    3.86088602764573    6.16709139609525
C        11.14487121203965    3.39517417881696    6.96035127597174
H        10.23157939249148    3.66291075989523    6.41146928684933
C         9.18734303751798    1.32026858866550    5.74690412774423
H         8.43058160576131    1.92316793880753    6.24771745896397
H         8.72597866597694    0.39024747781567    5.42690500549055
H         9.52527438832981    1.86131198450529    4.86274760496210
C        10.32591815420719    1.01693339215847    6.64743291402095
C        10.78583805602175   -0.18930273205572    7.12678168305552
H        10.36648344231170   -1.15717881719045    6.94491050130485
C        11.92017508690792    0.11058483656028    7.90247006573013
C        12.80845454414495   -0.82735637606836    8.63460215554537
H        13.37217879245147   -1.43863189124300    7.93043648563265
H        12.21883681545678   -1.49221270719730    9.26267027118722
H        13.50325906711646   -0.26874678172185    9.25547742222681
C        13.04354296008226    5.85395884708146   10.66369134434255
H        13.98206981206853    5.88277943426201   10.11745312998883
H        13.19899742162211    5.37040272921985   11.62691543576966
H        12.70416526615235    6.87267970202267   10.84533299306518
C        12.02907416892873    5.11336465135037    9.87151094331143
C        10.70019006129668    4.80969910455550   10.23147067707732
H        10.20422950515095    5.06214047439183   11.14599793399747
C        10.17095118530093    4.13092764815608    9.16138379059063
C         8.82030677794802    3.55827716188982    8.94154998106907
H         8.34466908387693    4.00878151482828    8.07014829212284
H         8.19926582679348    3.75630860410045    9.81029624464802
H         8.87409304719219    2.47956928931367    8.79135842632046

