91
CSD_code = YIBDUJ | q = 0 | S = 0 | Stoichiometry = C38H45NO4P2Ru | MND = 8
Ru        4.63037298053224    4.22957180049238    1.52940617986948
P         6.46329799845479    2.88222763756163    1.20075052042512
P         3.97802611330791    2.32741952350159    0.41447088107113
O         7.67722650609232    3.21030177614538    0.15549988397977
O         7.30820733859867    1.89402626355663    2.15695408369816
O         3.05207013744618    1.21873173044351    1.13882812264664
O         3.63839847045248    1.89151986425691   -1.11377129047091
N         5.54986664865196    1.66718944849441    0.42842737335113
C         3.36718164806496    5.85995198650777    0.63497745863301
H         2.53644446760257    5.77635589186256   -0.05566351055347
C         3.24409842520842    5.90309990981067    2.04623804789988
H         2.31578498509782    5.89368143858722    2.60348101432579
C         4.53227629500473    6.21164982118336    2.58071960481386
H         4.74167412461991    6.46871543397417    3.61165264297762
C         5.42889449792833    6.34116121946506    1.49273128768526
H         6.44526600401695    6.70583983666189    1.55848270458691
C         4.71641347729375    6.11805057553742    0.28472650809865
H         5.09320633341956    6.32480154438035   -0.70788636821001
C         5.94912126481566    0.33787055540398    0.00236607002430
H         6.71642551965744   -0.04546064416078    0.67474418889981
H         6.33598016745287    0.34338821932518   -1.02116448809483
H         5.07761737533550   -0.31617667725210    0.04765015046411
C         7.76091141107689    4.38034766165089   -0.56975852608258
C         7.27962547430409    4.41728091324545   -1.87836095103741
C         7.39592120042512    5.60416367574695   -2.58869785818089
H         7.01970484968081    5.65148917383177   -3.60048852252761
C         7.98314585795413    6.71883905944598   -2.01781257226740
H         8.05932411328233    7.63706461053107   -2.58099129467340
C         8.48305922229172    6.65439646087621   -0.73010945909055
H         8.95588744817065    7.52055880589019   -0.29024520224562
C         8.38315235960474    5.48546168516119    0.01179465810594
C         6.68289607108693    3.19051523803127   -2.49360147325040
H         7.43163156376017    2.39940269129970   -2.53923441764214
H         6.33001548046293    3.39570080162634   -3.50104610629597
H         5.85176018575764    2.82346552453198   -1.89232716924757
C         8.92847143331818    5.38338527466543    1.40228727910216
H         9.25762380639455    6.35419887879128    1.76469092333519
H         9.77367533996167    4.69502931770294    1.42781827751355
H         8.17246934358278    4.98630609104717    2.08297159202212
C         8.47902568079161    2.22920629242472    2.82232150269928
C         9.69140914296445    1.75157816170035    2.32245100462422
C        10.85833815511149    2.07126848943560    3.00471545176579
H        11.80378782894661    1.71324917460020    2.62413448256251
C        10.82204622799509    2.83725861229500    4.15461641274535
H        11.73853363161666    3.08356704072969    4.66945059234942
C         9.60903700603143    3.27905224127337    4.64962556176225
H         9.57720186010551    3.86498366158626    5.55622864772640
C         8.42046017120547    2.98009716020478    3.99701186057875
C         9.72915936417792    0.89651663114598    1.09372580337765
H         9.09772990327163    1.31991778246180    0.31644658781144
H         9.35412492556114   -0.10097880337395    1.32397445984039
H        10.74616237737955    0.80612220726210    0.72061169253540
C         7.10357980617740    3.42782310479369    4.54278146698867
H         6.51479651371995    3.95123935484657    3.78429522861540
H         7.24283282216633    4.08072390380792    5.40044520434183
H         6.51256328524486    2.56456588208321    4.84872384307453
C         2.50033007457201    1.39623551539571    2.39473680652080
C         1.33740448095627    2.15456915015754    2.51992648027231
C         0.75120260691231    2.26179087957692    3.77324583632163
H        -0.14824191435884    2.84937159521921    3.88640286714454
C         1.31009443793759    1.63349881610763    4.87037062444445
H         0.84499975809183    1.72691203675485    5.84048868762200
C         2.47217679275339    0.89720308805002    4.72909591556173
H         2.91731651108019    0.42146769999945    5.59071598882594
C         3.08847824063787    0.77067056040166    3.49278413526536
C         0.76109631188518    2.84046482831926    1.32038954823679
H        -0.04122167090803    3.51442198994484    1.60874789040601
H         0.37112278818322    2.11525854702425    0.60555347603249
H         1.54128000936534    3.41540917980416    0.81409006177247
C         4.36928904224838    0.01668159970256    3.32277392575319
H         4.70006898252149   -0.40284173094524    4.26915960606581
H         5.13552179839019    0.69656183194028    2.94560978829766
H         4.24746988891115   -0.78883483595715    2.59998306014171
C         2.40236486767367    2.01584562526903   -1.72680979641042
C         1.50897485155462    0.94236366920681   -1.71773134848402
C         0.28048642841896    1.09885384046444   -2.34830936533511
H        -0.41847525796251    0.27517317730858   -2.33860313883700
C        -0.05298527123993    2.27965033828909   -2.98307788425018
H        -1.01648524461424    2.38728846354049   -3.45802764448478
C         0.86347471300190    3.31315281128344   -3.02937393368135
H         0.62301867202321    4.22698630332651   -3.55280132248794
C         2.10244853088580    3.19404743066751   -2.41514827326103
C         1.85325557405779   -0.36621901108949   -1.07516739690829
H         2.93023551273625   -0.50721220692005   -1.05271461632427
H         1.39603758174045   -1.18527847964279   -1.62677675393875
H         1.48757070428554   -0.39888497302896   -0.04932809732551
C         3.11424374899446    4.29109750142222   -2.53642262807541
H         2.62775817633941    5.25967378099093   -2.62934776510337
H         3.71950781217471    4.13011530068556   -3.42931668139031
H         3.78496123511870    4.30314531357485   -1.68021868403711
H         4.32960458298826    3.39704644606440    2.79203058458930

