39
CSD_code = YIBFOF | q = 0 | S = 0 | Stoichiometry = C15H18ClN2O2Rh | MND = 8
C         4.02179638815466    8.93470905407530   20.45129368262592
C         2.74879486437518    8.51479360996226   21.18918339435167
C         2.73782320869136    7.93712467654311   22.45561567500748
H         3.66943593949464    7.79150217305069   22.98370638936746
C         0.49767000194856    7.72789415769118   22.35781197694405
H        -0.41362828751613    7.40139748526969   22.83791578682295
C         0.47579437613499    8.28940273393028   21.09068789383453
H        -0.44383157192103    8.39802842387577   20.53092604514251
C         0.27351431446186   10.88712993893158   18.40608803694326
C         1.56765286752579   11.39609626303318   18.09336431972578
C         2.07371364997441   10.66372837330869   16.95174782793803
C         1.10755359183384    9.69472442545575   16.58608297274200
C         0.00961950291721    9.78567360732136   17.52560534261900
C        -0.67181919868183   11.47015473764819   19.40788241817346
H        -1.17704437356537   12.32806992122011   18.96095098004885
H        -0.14770577163612   11.81438766439615   20.29742405309561
H        -1.43050597570926   10.75153413924570   19.70837855002708
C         2.22459631466277   12.60606084641154   18.67300697038809
H         2.08341160687229   13.45521493966743   18.00164707221618
H         3.29363858496264   12.44028661758566   18.78912346864624
H         1.80296877937656   12.86110328042813   19.64209644752377
C         3.35677201874199   10.99466638531611   16.26101168943885
H         3.50840441509235   10.36511431798361   15.38896662968742
H         4.19773324336691   10.84905978665185   16.93910679346413
H         3.34602480419297   12.03902748191293   15.94807486694361
C         1.11297831250646    8.79142851040150   15.39670245268313
H         0.30409310699303    9.07671135582987   14.72257741325936
H         0.95693619694053    7.75713674370502   15.70023900145945
H         2.05685962648439    8.85056526519944   14.86217430271262
C        -1.27624250846084    9.03598827183514   17.37254756177686
H        -1.91861447918875    9.15846900520337   18.24116383830386
H        -1.08212229015680    7.97510706273148   17.22669783790769
H        -1.81107008064541    9.40681489712119   16.49678994437098
N         1.61926342267529    7.55586382965598   23.04044881351185
N         1.60846005739465    8.69486743798420   20.51264767022460
O         3.79162011369486    9.28923408632142   19.25102852470224
O         5.09234455289464    8.91588521738031   21.01959927347815
Cl        1.87743796647966    7.00088187937040   18.26378171717682
Rh        1.80597270863863    9.28156139634610   18.61990236471719

