38
CSD_code = YIBFUL | q = 0 | S = 0 | Stoichiometry = C15H17ClN2O2Ru | MND = 9
C        -1.57812425821284   -0.82604085877125    4.10787865983929
C        -0.31968488126666   -1.18754394394295    4.89222581350979
C        -0.02856720185969   -2.45447649221600    5.38147594184825
H        -0.73089029554319   -3.26117615096141    5.22865743423031
C         1.91775773576703   -1.69920839605316    6.22538193947124
H         2.82499750787574   -1.91258548532262    6.77216125605406
C         1.65095816456682   -0.42140744221462    5.76200804419337
H         2.32302555608031    0.40590509261523    5.95320489365849
C         0.43938423336586    3.85161546171200    4.97080019893638
C        -0.58911628841240    3.78903258475978    3.99119715520927
H        -1.49586998787128    4.36482869720675    4.13768135010684
C        -0.40352682276237    3.06626170088233    2.80357735148100
H        -1.17733769492803    3.08554243539129    2.04339520934621
C         0.79154062442521    2.35228664364755    2.55157458559599
C         1.78709508066121    2.37114586437997    3.55770245445608
H         2.73910620764762    1.88286261102088    3.37435330755528
C         1.63578353180149    3.14929156219068    4.73286741745822
H         2.46318223850552    3.24643002030931    5.42769779491776
C         0.24311517356566    4.64809955067217    6.21984476967216
H        -0.33915424962204    4.04921856270114    6.92616616886137
H        -0.31228820643922    5.56097848956370    6.01558310357957
H         1.19444481504143    4.89593085267479    6.68470206515555
C         0.99991084323381    1.61645576369680    1.24901701808968
H         0.12549096174361    1.79774540853398    0.61492472481251
C         2.24035259212764    2.13487619061761    0.51614073222922
H         2.18093523517173    3.21235414471036    0.37749241728137
H         2.31180485251344    1.66569886786038   -0.46161431694105
H         3.14882461848330    1.90643092141980    1.06835035813515
C         1.09349105244780    0.10861664079602    1.49984983445073
H         1.95437846022352   -0.13294924217134    2.12157381903169
H         1.19232221762880   -0.42342393488479    0.55701710758180
H         0.18874835538286   -0.24236025586603    1.99615251603984
Cl       -1.17291399522977    1.55164315542787    6.60370211946713
N         0.53049422493614   -0.16097266011424    5.08110269143734
N         1.08781485747255   -2.71482811976708    6.03866049890098
O        -1.62224555611039    0.41759604797630    3.81639267880103
O        -2.38048339660026   -1.67511901608015    3.78390583569579
Ru       -0.09815630581438    1.60674472760203    4.53649504985193

