47
CSD_code = YIBJUP | q = 0 | S = 0 | Stoichiometry = C20H21ClIrN2OP | MND = 4
Ir        5.90042928783402    2.72688931090369    5.45698194330022
P         6.75565339357497    3.57433223785466    3.51964606820832
Cl        5.23512819151434    1.44225057542645    7.24185217722155
O         6.23172545227200    5.23491474731160    7.05988052285795
N         5.69878116556218    1.02881537245951    4.26921413807120
N         6.74713729828254    0.51897499047628    3.60635368711037
C         6.08832749162998    4.24948008709100    6.47056979152855
C         4.63223297226598    0.31990585566663    3.92453439878848
C         5.01479363840265   -0.67091693323065    3.00871447948267
H         4.38073551393960   -1.40310424715657    2.55268317842553
C         6.37223438220607   -0.51572073844333    2.82422925993849
C         8.04327921649729    1.12144347962154    3.75189320606462
H         8.80583476136146    0.41038386957963    3.42566531098995
H         8.18930917252835    1.34139875922757    4.81815966879337
C         8.12842546433507    2.42627544709690    2.95382455388268
H         8.03840425290114    2.21963414229576    1.88509582774447
H         9.09176622822461    2.90423807024893    3.14165069388444
C         3.27484193450841    0.59889217627261    4.45606902977465
H         3.34875397945046    1.23732142161862    5.33456512698083
H         2.78490513706750   -0.33149848492941    4.73495236700733
H         2.66449969079387    1.09418064932483    3.70037672641555
C         7.32018405205918   -1.28186654999893    1.97567023094565
H         7.81542287888416   -0.63252567096083    1.25353291502658
H         6.77738839800138   -2.05119098351911    1.43399289762422
H         8.08482110487531   -1.76465304431974    2.58497074005305
C         7.58798733046201    5.18890022487223    3.39424795733669
C         7.16298045912869    6.21760179952743    2.56332837908382
H         6.32054296157713    6.06891351711561    1.90320863070931
C         7.81784245705476    7.43730996094119    2.58484901895004
H         7.48629697024767    8.23352008752134    1.93455096674620
C         8.88702971940253    7.64138874690895    3.43987189668432
H         9.39272537756337    8.59526684481218    3.45403940598708
C         9.29762550297279    6.62641060192141    4.29081997368755
H        10.11825413186449    6.79077105978589    4.97306150084721
C         8.64580158755668    5.40947781810616    4.27401043429195
H         8.93543975800499    4.62085164922198    4.95691313995538
C         5.65598383592377    3.55949160948505    2.06152042365755
C         4.29371190061085    3.42611781117420    2.30329541964064
H         3.95472411687397    3.36304878144904    3.33040959129926
C         3.39677272503829    3.38204602651395    1.25120667973541
H         2.33932437259677    3.27638393046348    1.44417409641475
C         3.85781405596165    3.47768117768789   -0.05125489424362
H         3.16172345452289    3.44155590111940   -0.87605401920807
C         5.21342478025288    3.62969038271511   -0.29859979038645
H         5.56991746297432    3.71883095893512   -1.31462322472532
C         6.11226285697128    3.67231030187629    0.75136917374844
H         7.16679912344077    3.81147626795483    0.55297629966169

