46
CSD_code = YIBJUO | q = 0 | S = 0 | Stoichiometry = C21H19Cl2O2PW | MND = 10
W         1.50543465878467    0.15106212690054    2.79789785056925
P         3.38145218578794    1.29274438866015    3.94204639916423
O         0.74769503065778   -0.71741344824471    5.70470281507262
O        -0.25693786581490    2.23783127725590    4.52718598651282
Cl       -0.89221783855661    0.38278410404865    2.35876629614591
Cl        1.59669222113797    2.11727913129978    1.42023570834533
C         1.02450737196981   -0.41065300076423    4.62276251714686
C         0.95774669956056    1.76314206296247    4.24021027703299
C         2.10696463249177    2.29398946345682    4.73894095342940
C         4.29947503251973    0.41954173955121    5.24655017674897
C         3.74336151005069    0.23018863583134    6.50720831114823
C         4.43494372987410   -0.49036768084748    7.46414068887092
C         5.67600289800131   -1.03075861292199    7.16748532516939
C         6.23062812441935   -0.84951823251065    5.91013123837738
C         5.54471910683979   -0.12909667786288    4.95048329047283
C         4.64659681024510    2.44230606359663    3.31529707952412
C         4.84064509946034    2.62754057632256    1.95219460423794
C         5.79987550326277    3.52233809482041    1.51040086661034
C         6.56359003625406    4.23020943360658    2.42330421830318
C         6.37325061544288    4.04315152412453    3.78404249756582
C         5.42020521606691    3.14930389626086    4.23338349676778
C         2.28179887624565    3.53427089231002    5.56439985940575
C         3.28811167064676   -0.97366890788375    1.78037152695332
C         2.68685057995665   -1.78899661705392    2.78887204985665
C         1.35350157199759   -2.08742897063314    2.35691689415627
C         1.16577785844917   -1.46177266888181    1.08870630090138
C         2.35057023106199   -0.79351965308137    0.73974452365186
H        -0.91906004256390    1.79388192006004    3.94789455839850
H         2.77357357177114    0.65148751269966    6.72936290935785
H         4.00444282630542   -0.63145293884048    8.44422869170378
H         6.21336209790674   -1.59241223244196    7.91689061667106
H         7.19839338082803   -1.27011284483398    5.67970087411644
H         5.97456209660890    0.02514826106093    3.96909690166231
H         4.22325299152801    2.09102643247214    1.24625992483553
H         5.94843997676266    3.67026062195314    0.45110181555900
H         7.30843825580439    4.93070279332713    2.07580993629500
H         6.96914062004510    4.59663726653400    4.49489710142870
H         5.27201910101502    2.98874447190899    5.29251260746267
H         2.82181618089526    4.29626478355196    5.00201177193389
H         2.84168576939203    3.32195932422146    6.47532744235856
H         1.30066975668956    3.92014560505993    5.82954734933647
H         4.33420165283794   -0.69678849565173    1.74050887113610
H         3.21445766538735   -2.27856288195560    3.59800859531716
H         0.69591593537619   -2.82845705083845    2.79423607801257
H         0.29499350186528   -1.57780860466012    0.45465965718392
H         2.53155309473216   -0.27805288394974   -0.19363745491089

