64
CSD_code = YIBKOK | q = 1 | S = 0 | Stoichiometry = C27H33IrN2P(1+) | MND = 6
Ir        5.47251058241814    6.56959124432058   14.54380397799138
P         7.39520012234407    5.80438387445887   15.61759937055805
N         4.61527030889660    4.90762001317377   15.50761275431446
N         4.70752949253326    4.77110200509886   16.84553098372934
C         3.62820453534401    7.71655120434056   14.62860115182746
H         2.97779760157881    7.26641199686838   15.37751428592210
C         3.68604288620004    7.10614337139551   13.38576740829389
H         3.07923171005938    6.21644721487175   13.25232664899968
C         4.03276944861534    7.82856057775243   12.10380612909074
H         3.69773936307611    8.86288848563593   12.17377171248635
H         3.48525791572179    7.36892720492113   11.28034382275014
C         5.53963727193965    7.76914932995359   11.78243599939574
H         5.74144718104465    6.88228466644488   11.17877295408012
H         5.82783446949632    8.63572232049176   11.18062614257787
C         6.41475141497143    7.70819972006830   13.01068033587703
H         7.40850730474478    7.30131658161904   12.81435731100190
C         6.27527840963923    8.53108354165892   14.12986035462044
H         7.16747138901578    8.69411236023432   14.73097185273379
C         5.25202425365653    9.64063713700975   14.23527018382899
H         5.05268546475671   10.04074409912917   13.24208341938470
H         5.66986304281141   10.45307408994780   14.83032653122712
C         3.94718350892592    9.16505510235451   14.90023764663156
H         4.02550085874074    9.30281545544182   15.98043096160924
H         3.10922393053545    9.78121451156502   14.56154342370629
C         4.02474878438178    3.80733951550163   15.04313593168862
C         3.72586922171738    2.95832914897574   16.11382987476999
H         3.24303187450744    2.00543363002683   16.05956922809528
C         4.18111220215378    3.59574465884561   17.24960262258142
C         5.44800861360399    5.72796105467147   17.62303907710916
H         5.18298673393919    5.60301396901513   18.67444333032974
H         5.15707980729080    6.73395667416861   17.29979136798907
C         6.95440581269364    5.53462412703683   17.41578005156660
H         7.24072397329505    4.52181919062444   17.70853805213227
H         7.50053542524698    6.24273882891881   18.03962597187833
C         3.77343967759661    3.55199321093422   13.60216979873229
H         2.70963635247280    3.63085222722710   13.38086373261153
H         4.08824502589055    2.54099402253288   13.35209779885541
H         4.31871321220687    4.25899272419040   12.98297843736725
C         4.13568701822779    3.16290437419763   18.66677122400805
H         5.13821743070211    3.07320721136548   19.08366744213997
H         3.64805515044303    2.19495720720723   18.73202834234753
H         3.57337879462424    3.87230986105748   19.27350072161878
C         8.00086018437329    4.15828158574213   15.13599186685458
C         7.48499057656269    3.56917941474265   13.98801332287873
H         6.75278833062412    4.11089299148568   13.40364713112879
C         7.91208766292619    2.31225064160307   13.59804704296215
H         7.50946783662884    1.85733112405805   12.70580953024706
C         8.86135917385784    1.64264922184522   14.35208310484692
H         9.19695408533503    0.66263212728234   14.05037446598477
C         9.38982288530187    2.23267431962582   15.49084378300499
H        10.13834355950820    1.71329916215204   16.06958868062505
C         8.96435034902873    3.48719621239968   15.88509080934240
H         9.38973569296304    3.95494823984775   16.76282897979612
C         8.92578621223072    6.78238883829419   15.72989790537121
C        10.02668053894008    6.47165037372559   14.93744156341432
H        10.00082675254402    5.59965671755872   14.29930914026484
C        11.15597453559802    7.26980521258797   14.97507048091404
H        12.01060810356699    7.01621329812171   14.36687581696817
C        11.18985248666370    8.39135181313427   15.78719344663323
H        12.07224105230634    9.01122603545136   15.81617724197811
C        10.08585807925906    8.72234167179725   16.55694654857539
H        10.10565756354321    9.60280254805814   17.18108021908743
C         8.95503671034576    7.92824142254116   16.52252222930418
H         8.09008004983199    8.20157928256874   17.11245832131667

