61
CSD_code = YIBNIG | q = 0 | S = 0 | Stoichiometry = C22H32B2FeO3Si | MND = 7
Fe        1.50177418521443    1.51835808700366    4.35183171712849
B         3.02238777374559    2.79761412651228    8.36898085584289
B         4.12471898041327    3.80377864472633    7.13751258553858
C         3.11871476369876    4.44105889376283    8.09886963063475
C         1.77188110932374    3.89791315384808    7.92126397991258
C         1.89392837463569    2.81661097280123    7.01729386014867
C         3.27538534170633    2.64316459170113    6.61443137029716
C         3.47969992820936    1.48229112542239    5.74532906896534
C         2.65614499789431    0.34736272779700    5.87530013932039
C         1.31515706276568    0.54170704529334    6.26466487763456
C         0.90417608634904    1.88998121551955    6.48198061754121
C         3.18291172930509    1.79864472138197    9.60773616109675
C         3.09437321542829    2.58904725997630   10.92349497172449
H         2.12824057914900    3.08079263534544   11.00953227986462
H         3.87019383471574    3.34958641046176   10.96556509026920
H         3.21991952600385    1.92333466804863   11.77589697562746
C         4.54955410238977    1.09597834322668    9.55702934564508
H         5.35604888278612    1.82380938975120    9.59359512902415
H         4.64990476390070    0.51946422088244    8.64009966237465
H         4.66038738142446    0.41894118287227   10.40258850667324
C         2.09362004221907    0.71510095957714    9.61777393140061
H         1.10312809646996    1.16166662651467    9.63268235420795
H         2.19936530795446    0.08354103637992   10.49882750025168
H         2.17324091187666    0.08396245680537    8.73596782871393
C         5.67877587727904    4.17102058441814    6.96050767000533
C         6.25344494080345    4.77243929431947    8.25144860885209
H         7.30036166986791    5.04215141796099    8.11598825523160
H         6.18906735566416    4.05915363384094    9.07066658542892
H         5.70778051258924    5.66851118643926    8.53520161256032
C         6.54659146428027    2.96759094252073    6.56868065278850
H         6.27567522954834    2.60456203007536    5.58045591623800
H         6.43140210901857    2.15476586942571    7.28224623110475
H         7.59878639808329    3.25036784239678    6.54115199072231
C         5.79910212169582    5.22611360821674    5.84724413390914
H         5.40767025054792    4.83862697639549    4.90914278680699
H         6.84072727311451    5.50671022003722    5.69585177921093
H         5.23602843681717    6.11976564427203    6.10536504310973
Si        0.18043942584873    4.59930238394559    8.64679299907703
C         0.62778824140732    6.01563995163735    9.84019612934573
H        -0.26848310353487    6.45793394507331   10.26422076220510
H         1.16909899007501    6.80575890866090    9.32929705466918
H         1.24394814872369    5.67343733422129   10.66650639068849
C        -0.80185141489248    5.26316587395074    7.15316246984337
H        -1.73235735334774    5.72519778843118    7.46875461661452
H        -1.04892811547070    4.47389047652809    6.44903828072789
H        -0.23118961478444    6.01077890738963    6.61044249795004
C        -0.86654504743912    3.31081644950844    9.59362927055488
H        -1.81945642318970    3.74303340045774    9.88514918611575
H        -0.37498183979708    2.97368000444382   10.50182679558765
H        -1.08275270767848    2.43343956860745    8.99130455906516
C         1.72344669098330    3.28700909942465    3.98828370217147
C         2.06233094560733    0.72035672331348    2.88601763233169
C        -0.09227539473593    1.18578159161462    3.69657040072695
O         1.78160550968827    4.38480195922247    3.67326271622855
O         2.38398494932540    0.24989738591447    1.88739172108985
O        -1.12018795000270    1.01089018692154    3.21159581261623
H         3.25367320117496    5.22973963401848    8.82050501362989
H        -0.12521617765171    2.06364371957466    6.78139246130878
H         0.64481246737729   -0.29435428813377    6.42723445478853
H         3.02779217798748   -0.64638782632841    5.64930561679060
H         4.47423377743806    1.33815707567212    5.33971975006408

