66
CSD_code = YIBPAB | q = 1 | S = 0 | Stoichiometry = C25H34Cl2CoN4(1+) | MND = 6
Co        2.29811027447092   16.18325212871882   25.30517239718286
Cl        4.49313710522293   16.19444291331268   25.40486005233265
Cl        0.04290214602043   16.17175943289173   25.48879906860667
N         2.25820076823166   16.16755462382056   23.20502514651616
N         2.15167426610577   18.14010118808415   25.20235357643513
H         1.16088400919779   18.25895939281218   25.44347545486209
N         2.31576208522445   16.23604558459484   27.30295103026619
H         1.31671751194056   16.32565711813065   27.51631546326306
N         2.32382276232652   14.20914056879843   25.48157924264437
H         3.29821239747699   13.96105438042079   25.28006003703304
C         1.63069494870417   17.48184244317800   22.94068152955702
H         0.57327480994797   17.42080281302727   23.20625944128992
H         1.70367318491949   17.73934956908974   21.88045866859117
C         2.29100697116930   18.54883854663605   23.79997648710797
H         3.35099037251958   18.64032060757627   23.55866053674257
H         1.81540143905922   19.52035391225803   23.62471910985871
C         2.91713175755981   18.99122938838588   26.11775642968714
H         2.70223261115318   20.04353843885631   25.89820709424440
H         3.98242770056237   18.81432034813790   25.95266452489848
C         2.55597245051635   18.69469392805884   27.56938905340754
H         3.03825309550804   19.43561884025530   28.20662013185228
H         1.47577523805865   18.78832068389413   27.70857470028387
C         3.02031949470755   17.31110593594520   28.01054144282750
H         4.08973980781888   17.20540237784027   27.81583784574702
H         2.85287346925260   17.20084522415278   29.08833454543167
C         2.74810417150322   14.91224956931992   27.76818263271917
H         3.83369470365744   14.84660569223587   27.65784071151934
H         2.49197417378165   14.75967890036989   28.82200044753329
C         2.06380173972647   13.87519295138820   26.89187123173871
H         0.98282614580327   13.91378926175357   27.05290637652942
H         2.41632123658058   12.86664403954507   27.13032944330510
C         1.46506494706123   13.40837397977102   24.60073233851960
H         0.42437033892534   13.64104359647666   24.83580531228748
H         1.63166815689533   12.34311332100287   24.80117437884053
C         1.73282091384819   13.68879686118771   23.12912942466567
H         1.12503938424399   13.00265613075559   22.53804270678456
H         2.77837626813950   13.46552334433227   22.91372541678075
C         1.35253196184430   15.10966972081847   22.71130163076061
H         1.31056852629049   15.16725328512246   21.61876449059904
H         0.35067459764641   15.30846864270413   23.09432520491218
C         3.58120436926114   16.07552618988400   22.48561845982979
H         4.32513487349671   16.55380643964567   23.11261309199406
H         3.85620335425280   15.02551752120202   22.42999628099012
C         3.61546245261907   16.71046762355807   21.11414424047902
C         4.14688523247294   18.01103323499811   20.96400146719036
C         4.96986490297623   18.65187254436371   21.93107214165448
H         5.31928007459743   18.10530568869508   22.79472489606173
C         5.42792885078377   19.92372956333239   21.75373328733939
H         6.07571994400250   20.36947686313054   22.49372012671661
C         5.08825902057308   20.66227075811985   20.60428785231951
H         5.44631303302597   21.67400616415465   20.49624251001312
C         4.35072630285699   20.07323021558044   19.62553736481592
H         4.12145548154269   20.60013290781967   18.71160156960116
C         3.89075336985610   18.73782278777875   19.75628659200873
C         3.18964167523722   18.12659288415829   18.72313870536382
H         2.94130218067103   18.69748223868683   17.84062549250270
C         2.84969356060213   16.78088118742884   18.78270521147117
C         2.25675479348443   16.13192145669094   17.66923439048384
H         2.05736724083770   16.72162732172983   16.78721405956254
C         1.97897480349622   14.80102796894977   17.69612186772968
H         1.53819600396980   14.30935334574156   16.84327084112058
C         2.31255924805916   14.04631288908762   18.83736318053139
H         2.15757143426843   12.97791568350044   18.82665797106806
C         2.84315758649506   14.64451345185861   19.94078036720327
H         3.13977137353504   14.02140017406866   20.76849360572310
C         3.09999089421230   16.04226320923531   19.98500966787912

