86
CSD_code = YIBRAD | q = 0 | S = 0 | Stoichiometry = C32H34LaN5O14 | MND = 11
La        7.98571667105016   10.19508792048616    8.58922791795844
N         4.79437851685939   10.83845825756135   11.20544334596439
N         7.84037978163883    9.91835020255350    4.11116251885434
N        10.59474774044147   10.51597099665210    8.55227390427114
N         7.65869536940753    7.95378452435944    9.75627857970576
N         7.56057165051581   12.69969545515436    9.08982657655577
O         5.84654006938197    9.72242839578144    9.56198178836482
O         5.63290247550096   11.61490275032515    7.82783072034367
O         7.78839930659167   10.49428417155010    6.28532108675201
O         5.90478685443388    8.88162010939172    6.95613277757429
O        10.01797157127270    9.75841725694475    7.74308479152359
O         9.95795306274133   10.87398151533856    9.54225481776614
O        11.72598407012282   10.85072692995191    8.36410297104357
O         8.16079965201327    8.85654887660213   10.42551326694823
O         7.89140363570603    7.95217438897220    8.53627272829526
O         6.99964970780629    7.08834906719172   10.25155643547506
O         7.38456879464525   11.86111878455707    9.98315137998168
O         8.28591789698087   12.40319835984525    8.14198655105847
O         7.02104227199569   13.77040989790628    9.15406650831549
O         9.06107034285274    7.81911455805617    5.89121345491317
H         8.66651081635778    7.44915419498127    6.68882881743815
H         9.79406351375002    8.35706660750681    6.21060976822906
C         5.08740417035286   11.80448887234052    6.56579619815755
C         5.57867086935332   12.85319240058625    5.80095926435051
H         6.35051082143725   13.47691862516038    6.22539434914493
C         5.08368284053141   13.07301304981673    4.52778391485339
H         5.46869235883235   13.88825271568484    3.93447658887109
C         4.08130121687992   12.25935972444113    4.02429339294132
H         3.67750069395680   12.44159576933669    3.03948956506819
C         3.59894281608863   11.20632445467797    4.78050509616125
H         2.83590083936561   10.55274830676396    4.38195008130056
C         4.10701121970506   10.94866483148349    6.05000059276025
C         3.64791263210958    9.78214316114795    6.83589923666724
C         2.30948813953826    9.65165052166577    7.19594164157213
H         1.60174426897340   10.39078286114513    6.84704782910530
C         1.89477288702884    8.62073850918856    8.01869678076711
H         0.85486278704837    8.54225779317137    8.29789716018262
C         2.81743234312263    7.70267924404071    8.49528105392782
H         2.50173376799451    6.90960803148561    9.15537851673013
C         4.14377378776276    7.79170351391044    8.11473582884926
H         4.88144276582567    7.09175369008495    8.47590912613703
C         4.56350119794142    8.81987348506031    7.27967694316837
C         5.16346369263514   10.68186382927801    9.94168472773701
C         4.73462803091703   11.73485590229853    8.92295047272284
H         3.69990646719025   11.55255263409157    8.61278370474777
H         4.81097175005640   12.74515025089318    9.35085700357515
C         3.97704465251666   11.91786994108016   11.63358953389189
C         2.62367743293475   11.92794078521608   11.32199149514136
H         2.20354062500288   11.11509304126700   10.74766067423679
C         1.82795998998969   12.97219431682872   11.76062195138299
H         0.77478471313100   12.97965635689083   11.52360610640929
C         2.37987363731378   14.00114705944004   12.50535616889021
H         1.75638273702094   14.81347705153030   12.84622179874948
C         3.73084271092924   13.98906075077169   12.81229197322805
H         4.16223563557571   14.79412847639727   13.38681037895746
C         4.53353144398951   12.94851361636964   12.37995793142229
H         5.59018777709970   12.93303559865034   12.59677012736058
C         5.33919298022502    9.92852926465439   12.21034138413837
H         5.27348007256419   10.43229243271180   13.17595215636748
H         6.38887444865191    9.74415537039209   11.96136378055701
C         4.57196811291319    8.61281409117347   12.23543025812115
H         4.96475385741753    7.98090186330395   13.02623427168269
H         4.69807146232708    8.09171053578727   11.29073649255443
H         3.51271623415216    8.78772078579652   12.41550269130691
C         7.36251637590370    9.81665416795491    5.34771176879085
C         6.21906376912292    8.83503714864330    5.57615573841313
H         5.35964550816358    9.09562212773332    4.94935927651878
H         6.55956603553402    7.82480347450391    5.31261032106390
C         7.32485214187436    9.15609287111342    3.02621354798743
C         7.93998056982013    7.96234728079944    2.67459827538502
H         8.77322075163362    7.61123045489755    3.26317003612446
C         7.46007215901017    7.23944706469937    1.59657564613933
H         7.93479232755760    6.31066643398861    1.31960546296488
C         6.37331123014786    7.70511553142395    0.87416904977588
H         6.00388619694611    7.14095159134852    0.03133686526326
C         5.75788698341406    8.89282441258391    1.23288153597395
H         4.91005376105917    9.25421347091155    0.67056892014151
C         6.23090020101809    9.62282375864277    2.31005498243960
H         5.76009084524190   10.55053108650417    2.60085116998410
C         9.00561633721646   10.75544149754122    3.85611673575982
H         9.64640723918676   10.23086828035726    3.14388843167570
H         9.53134040966667   10.87355269335833    4.80607366960804
C         8.60002404597872   12.11909113242072    3.31259290262633
H         9.48715517861738   12.71947673783423    3.13335952729150
H         7.97288108533397   12.63109861855667    4.03710807070457
H         8.05391218709785   12.01465342651269    2.37714911413088

