66
CSD_code = YIBVAG | q = 0 | S = 0 | Stoichiometry = C23H33FeN2O6P | MND = 8
Fe        0.86290856063697    1.55327370855180   13.95118830235721
P         0.54072766744996    3.65377139565796   14.37928329374541
O         0.98915528842881    1.71912060978203   11.06707646784206
O         3.72903949285102    1.54000698741360   14.33579796273258
O         2.80094523461820    3.40999858622737   12.35487836850822
O         3.85489522449541    5.24367012986292   13.10069574266650
O         2.20840188688057    8.39267293925578   13.79996457442202
O         1.77229089577298    6.85056712632422   12.21980266115576
N         0.74499111456141    7.54130388730151   16.21550177391244
N         1.72434103344676    5.53434720803288   16.78029424831295
C         0.99738352979011    1.76071559548002   12.20844806094711
C         2.59835430707173    1.60808176893948   14.15454674615164
C         1.71568668648446    4.80264344315142   13.93359043829958
C         1.65226481911575    6.16859508376150   14.44220796546102
C         1.37225368331104    6.41366220557809   15.77773103596287
C         2.79686412398149    4.41552048149218   13.04506264760719
C         4.93579326764166    4.91172697856692   12.24746429297590
H         5.70559400578293    5.65849461049269   12.42742219852750
H         5.30662501366623    3.91029320084649   12.47894874173658
H         4.61525776295625    4.93220465170004   11.20357380733462
C         1.90276326140691    7.25055337016381   13.51163686914749
C         2.11248571373301    7.81653292550638   11.24626249643323
H         1.99345272145626    7.33098917700669   10.28035595620735
H         1.45240057247792    8.68499450048613   11.32041045883296
H         3.14380603505418    8.15086466850238   11.38367970148529
C        -0.11215498201391    8.32338132823341   15.36693986444473
H        -0.51554621201230    7.68988097733873   14.57888640707120
H        -0.93326677692761    8.71925311510050   15.96975528154511
H         0.42601942091771    9.15523470219217   14.90100039413100
C         1.12246706620223    8.18977987252168   17.44761930768939
H         1.89448846615254    7.61304147941820   17.94875097363843
H         1.51585627712825    9.18663746017938   17.22817018292125
H         0.26139045892801    8.29762091271697   18.11414650862103
C         0.74906047504868    5.11193329317840   17.75522693011134
H        -0.10354730526620    5.78413162763476   17.74940475288565
H         0.39549005103990    4.10121790006933   17.51099582577794
H         1.18920742334852    5.09548347481926   18.75567927311666
C         2.83434571320697    4.63139961077693   16.63746244531735
H         3.53169971530349    5.02206318076637   15.90113348255892
H         3.34108888152810    4.54970490563444   17.60330077078339
H         2.51980961941465    3.62475509062986   16.32442452032838
C        -0.21100451787932   -0.38386122865131   13.78068993816077
C         0.66994201327498   -0.44827819906023   14.89136319687550
C         0.20766123019772    0.49379332532726   15.87583760350685
C        -1.00414545170690    1.06555114778721   15.40387201976560
C        -1.21190228344710    0.60443054153188   14.07385321380917
C        -0.22746293605342   -1.32413343834116   12.61600815216213
H        -0.83203681230881   -2.20090883328395   12.85677676569964
H        -0.65249033437002   -0.85032771253293   11.73469483682785
H         0.77740397497405   -1.65954640546475   12.37161738204875
C         1.73992831613004   -1.47295871400784   15.10632161375383
H         1.31218806198816   -2.36102395961909   15.57591400354975
H         2.19022366813707   -1.77001795995932   14.16253225824664
H         2.52551411146435   -1.09200590499741   15.75426948418845
C         0.74335584575112    0.61618350636593   17.26988525660961
H         0.27466984371271   -0.12677296508744   17.91860319996426
H         1.81794386637202    0.45096097236796   17.28934734224977
H         0.54305184166066    1.60383335583330   17.67926095364399
C        -1.87812440971225    2.02199981660673   16.13821838539380
H        -1.77715377613453    1.89050168307451   17.21309138971366
H        -1.60537312931927    3.05461052369278   15.89012795158180
H        -2.91994442394198    1.87289105298870   15.86349145220860
C        -2.43331053240397    0.87777358791936   13.25129622872879
H        -3.23960290889124    0.19997379864292   13.53984643251520
H        -2.77355013940980    1.90040833592665   13.39512666468590
H        -2.23017131308623    0.73129950172478   12.19353254038865

