53
CSD_code = YIBVIO | q = 0 | S = 0 | Stoichiometry = C20H26FeNO4P | MND = 8
Fe        0.16913128031746    3.92147075196341    0.09725668627904
P         0.55100419233811    1.74696486376416    0.31693255863461
O         2.82669963686544    4.56761410733389   -0.82862575721637
O         1.34512133634135    4.64600046559939    2.63284058741995
O         3.23803799174666    0.39826437235850    3.66420603011265
O         4.68676741185704    0.20966274407603    1.96147151710956
N         3.07619628826409    1.26440540133960   -0.88816345531101
C        -0.97908778700614    4.81003697769120   -1.59640523076276
C        -1.17979062097777    5.58439019649257   -0.41101343630648
C        -1.84351580718824    4.75626214782852    0.54897450303831
C        -2.05630883919197    3.48064958046732   -0.04402725381614
C        -1.51868454878077    3.51278734768708   -1.36915478764546
C        -0.48381031220858    5.34358583786086   -2.90498002084381
C        -0.94535447269826    7.05610245417410   -0.27966437728195
C        -2.40338709403985    5.22297774555435    1.85650070523470
C        -2.82356745039616    2.33234616635141    0.52216244092726
C        -1.66829093026310    2.40353699943077   -2.35777914075807
C         1.76268720573936    4.27571690384990   -0.50689837778748
C         0.85467491068056    4.30646298992343    1.65569222039743
C         1.12775800776599    1.35654431720911    2.01682909428329
C         2.47769553302149    1.00881745530021    1.56269342682229
C         2.32411405766986    1.30870030911882    0.20655691849712
C         0.49588887312671    1.39347966897228    3.18298645750118
C         3.57024351611766    0.51235071012981    2.35430720815954
C         4.26299179968051   -0.08502975861398    4.50957965755927
C         2.51478572989708    1.61161964977530   -2.16749902891962
C         4.48082658144900    0.94001777271119   -0.91344684152922
H         0.28119060477417    6.10104348097394   -2.75356497292579
H        -1.31012509592820    5.79946324216575   -3.45317364556608
H        -0.06267695520453    4.55157537000438   -3.51913370443574
H        -1.83270980971366    7.60575775777598   -0.59942737729472
H        -0.10820430672091    7.37360091820281   -0.89597059313741
H        -0.73203201650832    7.32596491309390    0.75151129106352
H        -3.41165702103748    5.61401832364662    1.70800088187962
H        -1.79157554456878    6.01373176449382    2.28300632053927
H        -2.45373533962363    4.40841583772065    2.57440252314328
H        -2.21922532350285    1.42246562844450    0.50799959397278
H        -3.71791020325430    2.14915403413367   -0.07434102071264
H        -3.12369990120027    2.52791218496086    1.54759696629503
H        -1.37519902473458    1.45268594296075   -1.91069086252754
H        -1.05990520654381    2.57537816899239   -3.24191221271505
H        -2.71060740561260    2.31865541658259   -2.66820766191962
H         0.98845966132764    1.13801138298058    4.10441186904572
H        -0.53754210865067    1.69570687324952    3.23993940875252
H         3.84141571486823   -0.11911093778570    5.51151727294464
H         5.12930139483597    0.58082589899144    4.48204500927082
H         4.58195141331740   -1.08197986600194    4.19489097567191
H         2.56477442357869    0.75387688618115   -2.84507768957738
H         3.07289307367180    2.43848309483254   -2.61498408013221
H         1.47359299178467    1.91273126079572   -2.04750215859771
H         5.05932211281637    1.81531010485728   -1.22164090471540
H         4.65903879354728    0.13456944923600   -1.63008031791705
H         4.80633858814885    0.62271469016724    0.07535278579675

