104
CSD_code = YIBZIV | q = 0 | S = 0 | Stoichiometry = C34H40B20F4IrN3O2 | MND = 6
Ir        4.61533746110542    7.71094911079953    3.77459013116002
O         2.93924367619676    6.34563999676732    3.93346544308675
O         0.71827210713912    6.28456638397409    4.02332736691852
N         4.50773800094557    7.69486650004125    5.78895485524132
N         4.77807533486464    7.60180608724986    1.79027003410002
N         2.90257391165915    9.01305707385910    3.44930423837598
C         6.13704834497499    6.01118507865819    5.53918633790505
C         6.05083215242277    6.37312132256010    4.17941861545002
C         6.88395748562604    5.70156611162527    3.30278303095579
H         6.84914930927612    5.87838347610109    2.23849541148445
C         7.79564769898249    4.76234666604925    3.74754632249735
C         8.00384542669251    4.43927527040239    5.09691116536648
C         7.09030755636756    5.07682297206513    5.95027141793078
C         5.18280078478482    6.69683529666946    6.40954226648736
C         4.92180451504770    6.39934902154205    7.74764538987639
H         5.41991915722274    5.58106609022211    8.23535646218005
C         3.99752941745039    7.14467734639897    8.45422242360084
H         3.78304246894847    6.90920392853309    9.48490947335194
C         3.35575195949439    8.19582688956129    7.81799386940182
H         2.63959834135728    8.81518245660001    8.33290980992965
C         3.64079784438629    8.42341788037223    6.48610099890456
H         3.14897745517484    9.23029320476943    5.95989402039572
C         9.02396166418145    3.45690723293522    5.58324884266492
C        10.57618224525810    3.90179554891992    5.83955070816072
C        10.95167136322113    5.33700345475863    5.54204189026610
H        11.88694771049613    5.37662319365669    4.98517930300969
H        11.08451837671583    5.91051618427818    6.45923554758970
H        10.18857777048657    5.83825872867576    4.94347253453514
C         6.30923868636246    9.35566932784020    2.10626562892118
C         6.03384912373900    9.09012042826928    3.46795169240593
C         6.72772876953818    9.84866004495165    4.39696287957092
H         6.62639735655928    9.66343402947454    5.45556132109633
C         7.59071623199347   10.85684308182289    4.01227447009660
C         7.81831056114226   11.23684727167183    2.67930812861634
C         7.18557702767378   10.38678061606604    1.76167486682653
C         5.61759855123281    8.46806489023333    1.17039731050973
C         5.75761421200832    8.42900788298622   -0.21649299331104
H         6.42350109625958    9.10382539254533   -0.72352293164147
C         5.04197108178790    7.50360939216795   -0.95495766636159
H         5.15020975956626    7.46894880227236   -2.02787281421198
C         4.19732932961214    6.62124766906345   -0.29879738153750
H         3.62926653574854    5.87977620140060   -0.83593570915217
C         4.10125713590834    6.70710313743150    1.07705967274462
H         3.46643480114170    6.03322900823697    1.63614862288670
C         8.71451129838139   12.37162841506778    2.29144579570769
C         8.11086186685613   13.85876179941743    2.04021530736925
C         6.61334201007390   14.02100146852962    2.18975492950489
H         6.06888745755094   13.43795636619441    1.44524143608671
H         6.33785164329634   15.06614616452304    2.05950220264975
H         6.27144810870054   13.70712515257340    3.17746567882483
C         1.74232667031048    8.36257929065707    3.54241220528589
C         0.52142234176796    8.99470347942560    3.34462972694789
H        -0.37527885396331    8.40260243075876    3.44198798749660
C         0.50455747465494   10.34148580190709    3.03517695085463
H        -0.42725674262655   10.86248105080654    2.87389403304536
C         1.71690151277015   11.01243621165897    2.93637480173898
H         1.75503344105593   12.06341708334261    2.69688882732986
C         2.88735488781385   10.30933076036919    3.15295995072751
H         3.85196371281576   10.79592620620079    3.09336477442607
C         1.78595465117064    6.85206956241570    3.87125432525174
F         8.48721409078372    4.15315158671507    2.76502929617592
F         7.10978899702179    4.77719468161202    7.26431986601210
F         8.23954826158234   11.45621726878552    5.03035427515023
F         7.44181964533561   10.54477799839777    0.44652480014419
B         9.61062148973910    3.59643842199341    7.20873054213970
H         9.31582781175631    4.54191100596401    7.83385940081126
B         8.56346297232516    2.25744533643663    6.72236761304925
H         7.43791845434172    2.23808901838384    7.05671851888081
B         8.97494013280980    1.82884506617088    5.05095766994633
H         8.11649802108079    1.54386544142386    4.30003896163368
B        10.28619274092210    2.87584745907586    4.51855891887640
H        10.42667103827744    3.34696148147654    3.45998531128211
B        11.27249390197515    3.05533476413742    7.17129493137079
H        12.04898877916101    3.64389210545188    7.82960365425293
B         9.98545932102289    1.96919331025358    7.75295659072314
H         9.87640805418294    1.67174278799436    8.88514836487462
B         9.59275923308618    0.85421840533388    6.40882459250053
H         9.20218259083413   -0.23799205316536    6.60356090757416
B        10.66019044593890    1.24062282309540    5.03524209234775
H        11.02337724929298    0.43418270569840    4.26080824349836
B        11.68228504319824    2.60720709993761    5.53440035054752
H        12.73316069512366    2.90160504530945    5.09629171453643
B        11.28304320743554    1.34021330692335    6.70573499448714
H        12.10196554858932    0.59874582247076    7.10896257870405
B         9.02768016061519   13.62939429982533    3.45944528735567
H         8.41713988085116   13.63958686242317    4.45721682942606
B        10.28266646366683   12.48572543726627    2.98391384595396
H        10.60096352378035   11.62816337519130    3.72093941279574
B        10.06384170448130   12.10875382248251    1.26418728136066
H        10.23691870399841   11.00789752154365    0.89014323501836
B         8.68460534464124   13.02396192574501    0.66899528381642
H         7.86622340133677   12.66735063819473   -0.08581564494472
B         9.20877756847379   15.09833744793556    2.53743383856593
H         8.73763032708682   16.08034177733429    2.98067185142781
B        10.64254356545435   14.22598681923126    3.13933008449935
H        11.31213129006318   14.64277230433959    4.01050121710359
B        11.29865267965601   13.28469830685709    1.77005577641786
H        12.44517921719825   13.03947073120434    1.68074105111851
B        10.29570878270262   13.61611102331516    0.33314236009318
H        10.72071734565617   13.60558102385232   -0.76266257299101
B         8.99914431266458   14.73077263675185    0.84228100980152
H         8.38862176367269   15.46698557024076    0.15810625417035
B        10.63781405446664   14.92167343873089    1.49833298550752
H        11.30683090234718   15.84566321932075    1.21374448244682

