35
CSD_code = YICFIC | q = 0 | S = 0 | Stoichiometry = C14H15Cl2N3Zn | MND = 4
Zn        3.75522892499347    4.45850617873036    9.18520374426479
Cl        5.90300381892903    4.62848605886539    9.55849569122410
Cl        1.81189559570920    5.34754633836891    9.74339152904647
N         3.57064212312222    3.70334903742610    7.19912351202591
N         3.10940340852776    2.37810965647429    9.56283333630483
H         2.52638068334476    2.39069288128431   10.39976190240822
N         2.08116613138336    0.63578332337602    8.43379616395035
C         4.15337033026509    4.18353798915003    6.10842399608681
H         4.68624084908343    5.11588981093151    6.22822315988841
C         4.09326757314797    3.53448899043506    4.88755206162430
H         4.57694551566331    3.95863265578218    4.02273961737975
C         3.40426323669157    2.33391569124888    4.81057576956489
H         3.33780725910281    1.79372881572784    3.87826873957550
C         2.80452737797985    1.83134072124466    5.95338688503233
H         2.26687483328948    0.89720417972629    5.93691265455707
C         2.90920525511338    2.55207312051205    7.13588497577470
C         2.25110510592671    2.07547604012841    8.42114471917173
H         1.29839689890212    2.61160819000956    8.52911792474379
C         4.00018611410728    1.21871517051861    9.62778703946761
H         4.46961426662563    1.13737253064677   10.60588668658595
H         4.77871539157616    1.34078477622159    8.87163016409500
C         3.08735338644661    0.03507118391230    9.28916491081426
H         3.62509621427013   -0.76069466806031    8.76662743918689
H         2.63335679678767   -0.38260657845544   10.19821455297461
C         0.90515196973367   -0.00339286818349    8.09383247007172
C        -0.10040858146339    0.66236718854229    7.38582355044972
H         0.01812467754550    1.69913925002193    7.11038462597797
C        -1.25752027582723    0.00168504402016    7.02124204022968
H        -2.02182691230788    0.54014579521268    6.48081156630243
C        -1.44110461903530   -1.33348715699423    7.33685444648488
H        -2.34594557373419   -1.84470885241893    7.04765863729814
C        -0.44390722879968   -2.00434299689741    8.02285106963624
H        -0.56654137533145   -3.04816014406091    8.27177921314877
C         0.71625249447239   -1.35457994250854    8.39772428014171
H         1.47887833375887   -1.90507741093706    8.92479092450965

