32
CSD_code = YICGAV | q = 1 | S = 0 | Stoichiometry = C13H14ClN2ORu(1+) | MND = 9
Ru        5.98387994097450    1.62051889728941    8.29116537864991
Cl        4.76158833528576    2.39415914508392    6.46741871892149
O         3.93784585608182    2.45304684752068    9.94595577045702
N         7.04828911999443    3.27194320863968    7.94263819374181
N         5.00608957211327    2.93297905142811    9.28818534030519
C         8.12170695413431    3.35052410297208    7.16117037427833
H         8.51987160918840    2.41776494269807    6.78335654280613
C         8.70751831098069    4.55640497959651    6.82383334104417
H         9.57891853968406    4.57023988609674    6.19020847495440
C         8.15182945633604    5.73913570903440    7.30302647396686
H         8.58565395731131    6.69200686653908    7.04571829641157
C         7.02624654046821    5.67092219227382    8.09938772803836
H         6.54855802075380    6.56142454575040    8.47459062181192
C         6.48653688114602    4.41962190783002    8.40247114155905
C         5.30438838520114    4.18788093471928    9.18507975587456
H         4.73632894708395    4.99509098328095    9.62528145623907
C         2.94258599441029    3.36340639374775   10.40681660730073
H         3.32438249892294    3.99640544792823   11.21132802466211
H         2.14885674963127    2.72695232037667   10.79025616210994
H         2.56090406213798    3.97181195021823    9.58366873431412
C         6.24342501779333    0.09455988541801    9.96281926415771
H         6.18048280411555    0.21598472375105   11.03873831154892
C         5.10129205423890   -0.32578446945654    9.23605435437497
H         4.16917587521280   -0.50815129596614    9.75630453516900
C         5.19309298984259   -0.53623030335269    7.86014415668861
H         4.32884995644994   -0.87747413324774    7.30056780059667
C         6.44879127314969   -0.41201115761248    7.19964144823135
H         6.52717692917107   -0.66869127811930    6.14870032233499
C         7.58854667940722   -0.07086408778860    7.92973900650056
H         8.56297144541317   -0.08189899935032    7.45449890071997
C         7.48647452824346    0.22124935864696    9.31353098929001
H         8.38124071512334    0.43227144405474    9.88860377293800

