42
CSD_code = YICKUQ | q = -1 | S = 0 | Stoichiometry = C15H16CoN2O8(1-) | MND = 6
Co        9.72641127400139    2.36315372941827    3.25844379486061
O         8.74706857946518    0.73801838598576    3.60320548915327
O         8.35081380236094   -0.75410270073595    5.20532510679891
O         8.28154715906017    3.49402974498553    3.45264646530002
O         7.06272972309544    4.65248405109281    4.90663467385804
O        10.89940908794410    3.84257236885725    3.26280234098114
O        12.32119209259719    4.96440165709500    4.54656582611013
O         9.51616519066884    2.29020679953034    1.40219679024223
O        10.49879171452146    1.83549177546696   -0.53944784401688
N         9.85631055286314    2.41827302958385    5.23494255357705
N        11.35255014908629    1.19782926518146    2.82619730136847
C         9.77382576077993    0.75871196509861    7.15940575695708
C        10.79973922333913   -0.22175786181025    7.64953715112079
C        10.67873721363763   -1.56717514592120    7.31778306138371
C        11.63196393221231   -2.47861764732966    7.73221834758098
C        12.71934533583182   -2.05803565122183    8.48158343257434
C        12.84923096693126   -0.72036627473950    8.81106762972495
C        11.89506265952450    0.19290014101335    8.39508005532196
C         9.94803857579495    1.00984613188318    5.64830783261340
C         8.89454684983588    0.23846483051667    4.75947311889383
C         8.60825991325528    3.01600096066280    5.74490816808221
C         7.90626403816196    3.82841827257203    4.61818351505845
C        11.03069870460499    3.22802768839250    5.57934658524580
C        11.46056611320662    4.12487986414160    4.36579121275977
C        11.78584162075519    1.62067903196572    1.48459552835497
C        10.49133164316722    1.94261766964524    0.67046714197884
H        10.93062328567615    0.62370670022682    5.34751392553889
H        12.15608413166716    1.18396495516112    3.45370903888595
H        10.98853830937628    0.24547264158409    2.75700716967188
H         8.77692496069000    0.34415467903020    7.32947585628008
H         9.86903122781204    1.69745641191929    7.70694238759336
H         9.82954050572052   -1.87948055431997    6.72823408701850
H        11.52703221876305   -3.52219334133873    7.47275418564446
H        13.46338350500573   -2.77093001352699    8.80795547226647
H        13.69581341951488   -0.38549433395663    9.39432658165587
H        12.00307556456146    1.23700808318141    8.65679060272619
H         7.90208572316057    2.22714565286851    6.01428519931559
H         8.77604892644447    3.65210187977868    6.61818378213971
H        10.85283436540382    3.87816492130000    6.44067340206801
H        11.88284660376160    2.58338345505244    5.81559087510245
H        12.35072462645013    2.55095453229481    1.56544457147412
H        12.38967074928895    0.86083224941685    0.97785182673405

