36
CSD_code = YICKAX | q = 0 | S = 0 | Stoichiometry = C12H16Br2Cl2N2OZn | MND = 4
Zn        2.37113125213433   16.02832097622582    3.12666961278665
Br        4.61444089687341   15.70001314452507    4.00593610594600
Br        2.30764603330302   16.07468769170169    0.77984008830925
Cl        1.18850814254745   19.26056120307589    6.10511337190906
Cl        0.68837204113358   15.48972744631433    9.90097721088899
O         1.38610681426363   17.02885213690164    4.32058857936014
N         1.53232644026579   14.17991081420398    3.76444794282783
N         4.98750527112472   12.54699747591563    1.79002918659494
C         1.17507509706841   15.26422531484243    5.92346239015816
C         1.24544898838141   16.63361773575908    5.52481874660400
C         1.11536804513557   17.60256763877320    6.56678589217218
C         0.95640093774261   17.26607999180608    7.88361421775654
H         0.87740520209514   18.03357314596299    8.63690350204778
C         0.89613385179870   15.91453656364251    8.23700318715712
C         0.98986733067349   14.93931322958740    7.28280717766775
H         0.93627984777373   13.89935381804798    7.56850138523329
C         1.21824485291189   14.16983620540848    5.01188501550532
H         0.92983401285227   13.20904649353458    5.45752163317008
C         1.35525705631995   12.94315355067464    3.03346257250177
H         0.41027972573535   13.01921368617895    2.48376011558667
H         1.27535808748842   12.09585635686927    3.73120485503542
C         2.46370769539032   12.67937910411415    2.00829249441108
H         2.20957679902615   11.77098884533963    1.45806753639429
H         2.46886540192316   13.51261556195436    1.30967326105243
C         3.81172467521025   12.53688400310732    2.70261587160576
H         3.83868350544177   11.60165176248238    3.26743793073295
H         3.95263721067031   13.36435409047838    3.40084522345310
C         6.21351206877370   12.38966630205131    2.59124306820463
H         7.08606847666102   12.35232497736228    1.94345540657132
H         6.17118200633034   11.47980504788184    3.18581343000390
H         6.29997872026484   13.25039643246478    3.25660097034488
C         5.10694973174593   13.76989193372804    0.97299178650836
H         5.20490407886655   14.62872794474436    1.63544095441727
H         4.24178399696424   13.92132080588432    0.33346615286940
H         5.99509558728668   13.70401307290943    0.34993783752393
H         4.89334011954754   11.75263549654456    1.14828528498680

