73
CSD_code = YICKOM | q = 0 | S = 0 | Stoichiometry = C44H24N4Zn | MND = 4
Zn        3.46789958203821    2.08661587449000   24.70901972987398
N         3.23762282902787    1.37542184821658   26.68824744932300
N         1.62371211024255    2.63355553672909   24.60693424660693
N         3.68200714617211    2.73823923789036   22.75551756176946
N         5.34022502970625    1.63451044055584   24.68190754537350
C         4.20619066242627    0.80871989322189   27.46676735200663
C         3.64683832171373    0.44629827320824   28.74119305341485
H         4.17751392043422   -0.01266563146804   29.55049581237715
C         2.34171130745807    0.79820172373889   28.71538114828295
H         1.62291467123682    0.67422441731075   29.49970493686840
C         2.08750340447516    1.37970720533923   27.42477011789325
C         0.89423218591134    1.88271684655082   26.91918150337870
C         0.79314627976505    2.42102180995055   25.63066501249974
C        -0.54710127523595    2.83384435811540   25.32268308846910
C        -0.51402490790594    3.31217524529440   24.04726212200987
H        -1.31511285240298    3.69563716579076   23.44548684086012
C         0.86184501115034    3.18530556262166   23.60819745032397
C         1.37967239347177    3.52475740122411   22.36433436765398
C         2.72281218909286    3.32819889683079   21.99305810926026
C         3.29354410707326    3.75985281705596   20.75130380370000
H         2.76955312769720    4.28193578823087   19.97448940728484
C         4.60445343264038    3.40602012191788   20.77695152559295
H         5.34780984798514    3.58537620153202   20.02478658589822
C         4.83494645326168    2.75865648421860   22.03463904940325
C         6.08045257447591    2.25871399287306   22.45786539475090
C         6.31163623887792    1.71813723332268   23.71677747086265
C         7.54703882602752    1.13794331530475   24.20557751218156
H         8.45317844282745    1.05914708281779   23.63681362479258
C         7.28859802319593    0.71936872015701   25.47619455364589
C         5.91333629698985    1.04209824120748   25.73251505163301
C         5.50809867616766    0.63775835295038   27.01026947286952
C        -0.46899744188605    1.97696607504419   27.47441401882361
C        -1.34081383703194    2.55109277179772   26.50244979232490
C        -2.67694320950472    2.74979164390981   26.76961134049831
H        -3.32639231813686    3.18432351949583   26.02404163298272
C        -3.17337096267780    2.38050165988634   28.01636546012350
H        -4.21875172937217    2.53128356900101   28.24267112489626
C        -2.33679023784657    1.82473637760559   28.96523827684210
H        -2.73496303154664    1.54394234282470   29.92952079654506
C        -0.98442092251714    1.61842066415107   28.70358928298345
H        -0.36430689017579    1.18251859044056   29.46990511850973
C         0.46655442720559    4.12260305334470   21.37030397606098
C         0.23912246877820    3.48708597587417   20.15253424520201
H         0.73622788909085    2.55057574523869   19.94469145309483
C        -0.62889813426321    4.03675226456317   19.22711809450158
H        -0.80307734655128    3.53097588800997   18.28852432438893
C        -1.27432925503073    5.23130565924130   19.50139558183200
H        -1.95007889282813    5.66093133443553   18.77674154284468
C        -1.04892569051518    5.87314569371603   20.70781744640583
H        -1.54771755354648    6.80654918180922   20.92484640288988
C        -0.18821201958286    5.32123780327862   21.63934690724749
H        -0.00460853832265    5.82540727943886   22.57713017821186
C         7.20833685642982    2.31215080562233   21.50723771968035
C         8.36184079479087    3.02580510790679   21.82035899627379
H         8.41551297945562    3.55775849139426   22.75916223970201
C         9.42023452344344    3.07095651866580   20.93129228249069
H        10.30832834635952    3.63218786594613   21.18243688005734
C         9.34439709351419    2.39723158195038   19.72355131088660
H        10.17286361532010    2.43025574566493   19.03157988757327
C         8.20199493704227    1.68115005225818   19.40632290393342
H         8.13917259905826    1.15213083804619   18.46659675869429
C         7.13857240923346    1.64126676506629   20.28936621042856
H         6.25018019263506    1.07606713321373   20.04759764322461
C         6.71038012435408    0.03111117913457   27.61212827863703
C         7.78716177289756    0.08018980343133   26.67806923632389
C         9.02776605808507   -0.42963911268619   26.98944777190531
H         9.83330905124001   -0.38799959687306   26.27124574093705
C         9.22202473924527   -1.00075783448665   28.24368996205450
H        10.18859507073112   -1.40674332550508   28.50344887487214
C         8.18594525198959   -1.05168580449709   29.15640720784546
H         8.35069651571919   -1.49717392313471   30.12681099647176
C         6.92765013838535   -0.53889510359441   28.85029955412065
H         6.14567610033847   -0.59710873783583   29.58990164581145

