41
CSD_code = YICKOL | q = 0 | S = 0 | Stoichiometry = C19H15N2O4V | MND = 6
V         2.55536648106409    2.58456358280898    5.34658877922680
O         2.35071004132078    1.50100499388046    6.82274000631695
O         2.44205332077239    4.12959583796482    4.46821725771328
O         2.02022406255287    1.66963501778027    4.24611842982026
O         4.18037298618028    2.42775111378525    5.39884262955815
N         0.49242217804288    3.01083225748789    5.89856413193588
N         2.75559460078051    4.22346610142855    7.08486133879596
C         1.19930772059149    1.36794413407118    7.39305364103880
C         0.90564938311551    0.50679091393322    8.44721292956740
H         1.68064174388146   -0.13630333018110    8.83662193600888
C        -0.38262044531828    0.46389476507845    8.98457092217217
H        -0.57530984906662   -0.22082154909753    9.79822206413295
C        -1.40542597585856    1.25327691276743    8.51526292236535
H        -2.39373749913819    1.19467489120333    8.94469037302455
C        -1.16629249604159    2.14388541156245    7.45292039664886
C        -2.12074413662676    2.99966298557626    6.86442156118287
H        -3.13562333448920    3.00170720034287    7.23657156858416
C        -1.74482575923295    3.81180653039718    5.82602631208892
H        -2.45580278224993    4.47053416865639    5.35117323019399
C        -0.41613973971723    3.79239431778063    5.36787973166173
H        -0.10110839938842    4.42601217692555    4.54702621702690
C         0.14032529330621    2.19704077889765    6.90518843822695
C         2.66349607836088    5.29328529061998    4.99268588131072
C         2.73214520099944    6.47428604080916    4.25867722376264
H         2.61116196879220    6.42799056085138    3.18649127486953
C         2.96976708056670    7.69600814506598    4.89179848561250
H         3.02275959476704    8.58870814026857    4.28534321139210
C         3.13536598108911    7.79115798655608    6.25135502578007
H         3.31929978365414    8.74408695852988    6.72403716961763
C         3.07016932846249    6.63118756133535    7.04554610776322
C         3.22636111760611    6.60477568485954    8.44738087181194
H         3.40703308204471    7.52919519983539    8.97815213953579
C         3.14654746232847    5.40941105458116    9.11197489489856
H         3.26390494808280    5.35710863514102   10.18359834584217
C         2.90562369205811    4.23150402135573    8.38443478948152
H         2.83422907207801    3.27477451686405    8.88778680247988
C         2.83608682352079    5.38280737299817    6.41252048768892
C         5.22020335770419    1.68582397332794    4.92298670496207
H         5.55398160536995    0.98065937596386    5.70054996214221
H         6.06721086434939    2.33638181805986    4.65336952541381
H         4.89041556368518    1.11719844992907    4.03683627834342

