37
CSD_code = YICNIK | q = 0 | S = 0 | Stoichiometry = C17H14Cl2OP2Pd | MND = 4
Pd       11.57103747224620   11.31033018836443   15.48986473753038
P        11.69637994883571    9.22795442636644   16.35275571578334
P        11.24454829569074   10.26076037239741   13.51151773853306
O        11.40983694987933    8.64455189263413   13.73747920173931
C        11.87369401855117    8.16293846299775   17.69225649966956
C        11.87588625076112    6.78651307535700   17.56821204609751
H        11.99771675104444    6.19834892794083   18.46755732208569
C        11.73094031918990    6.11544817312391   16.36522243330471
C        11.57176484226236    6.75218689570215   15.14180141084409
H        11.46468523086172    6.15482804684953   14.24639068880309
C        11.54428500960382    8.12547876725330   15.00531202526657
C         9.45525644807712   10.40798290588868   13.17633582874216
C         8.89514092818395    9.90678407050941   12.00698034350863
C         7.53021957428330   10.00188223220670   11.80481013230061
C         6.72564971715601   10.59580652013468   12.76445299005355
H         5.66128598060854   10.67333358804351   12.60027421870357
C         7.28171543850944   11.09408902779716   13.93198367024091
C         8.64607806711276   10.99970706154206   14.14232830089350
C        12.00318556197286   10.44523286673587   11.88409066571918
C        12.75099458550601    9.44217443928439   11.28027261833432
C        13.31738944755432    9.66992090758725   10.03828953412377
C        13.15108683755148   10.89357360930831    9.41048054218350
C        12.41900834820539   11.89971712677324   10.02336268181562
C        11.84544455394384   11.68107630425886   11.26130015728825
Cl       11.63902196025204   12.32175285866907   17.51000291875203
Cl       11.48746852521438   13.27888295820286   14.42228918156548
H        11.98946660528866    8.61779673434749   18.66723929458087
H        11.74302677236408    5.03580411051588   16.37353026943861
H         9.53301730065658    9.44978971770944   11.26341467858587
H         7.09282544173502    9.61635688950444   10.89594712510287
H         6.65273053436355   11.55930130942932   14.67565395045703
H         9.09369814278917   11.40785838800686   15.05971464237466
H        12.88166944087159    8.49262948162016   11.77772044793146
H        13.89427513848172    8.89114648101529    9.56154074147982
H        13.59921756039102   11.06609857268710    8.44327719072382
H        12.30051181769788   12.85584795738779    9.53655339007889
H        11.28804018230466   12.45881465185155   11.76588466536491

