66
CSD_code = YICRUY | q = 0 | S = 0 | Stoichiometry = C23H33MoN3O6 | MND = 6
Mo        0.95548814142303    1.19240259966388   30.51193204882891
O        -1.92260683780519    0.83515401121436   31.54554678303027
O         0.86180263902015    4.06594203358067   31.61338135846484
O        -0.24864319525682    2.29911871717800   27.90364096272038
O         4.87226968032970    0.25269757448800   29.20115329009705
O         3.70777806070973   -0.56075901233145   33.21169920437445
O         2.08811831087389   -2.85735321246794   30.00250707263026
N         2.01465461948885    0.52796526196268   32.22764295742169
N         2.90330956461202    1.21555520414195   29.66707599061237
N         1.06536515587340   -0.86380177295827   29.99395710868440
C        -0.83340946996322    0.98059954153229   31.20269008602854
C         0.92330595816533    3.00699039893878   31.16616396736558
C         0.17558964809556    1.84404376596697   28.87215199217697
C         3.37580872552446   -0.90316686742247   30.78918134039148
C         4.52193273028767   -1.89637113807828   30.92096430262726
H         4.23299594623184   -2.70732425168678   31.58425970349962
H         5.39710118402065   -1.39802268055783   31.32931463753057
H         4.76919774104614   -2.30630858039645   29.94534186890037
C         3.69985407088802    0.24570607525921   29.87071525469587
C         4.86828596952263    1.43931662591456   28.40605661895068
H         4.96028964605831    1.15111943942609   27.35588459505130
H         5.73468809002417    2.04141010552115   28.68835311496589
C         3.51588664889243    2.12770070455775   28.72400610544616
H         2.87771620758007    2.17832036111410   27.83296966247181
C         3.61697852748687    3.54617741813979   29.30904164939563
H         2.58572701504180    3.85318328755898   29.51111984409352
C         4.38484380006342    3.57051834004794   30.62813479877109
H         3.93043545395009    2.88056344475377   31.33898617715900
H         4.34552319716073    4.56896364896995   31.05542390803873
H         5.43070179111456    3.29969860288233   30.49269595769462
C         4.22190361181942    4.50748540080898   28.29042014536700
H         4.20790043244956    5.51954069298007   28.68592660002217
H         3.64866312369034    4.49403839822432   27.36679259982444
H         5.25287368586620    4.24537007545796   28.06083267813832
C         2.98690094111923   -0.28180957479381   32.10467853709805
C         3.11576309724835    0.19246431833202   34.27112916300442
H         3.87195971419181    0.86827677689769   34.67837324845306
H         2.80280455450038   -0.50489116275707   35.05124446433427
C         1.93065765597052    0.94409820291304   33.61190540644692
H         2.07826333870631    2.03050126272730   33.65237191631211
C         0.54363579045826    0.63719634506629   34.20081596205609
H        -0.16493542875646    1.21109136280899   33.59493383254230
C         0.45276986870433    1.11910141641998   35.64553453010388
H        -0.55709692819925    0.97332334554537   36.01943253302505
H         0.69094378931650    2.17788987087076   35.70962755833725
H         1.13732666037663    0.57157749470146   36.29042286223697
C         0.18177382503293   -0.84077205139463   34.07877680351222
H         0.24701665032605   -1.15780880081292   33.03809105876963
H        -0.83999341511953   -0.99583881515379   34.41487564031882
H         0.83659090771183   -1.46877728430579   34.68072125606965
C         2.12164827960825   -1.52819389593222   30.23718805949357
C         0.77744039352183   -3.14073830028840   29.51048258432387
H         0.30226545390328   -3.85593574460891   30.18656226406153
H         0.87551037292191   -3.59468096611278   28.52197897070055
C         0.05633745402765   -1.76841275265827   29.48394055517368
H        -0.79641987353366   -1.75505515494195   30.17408871441053
C        -0.44925775067070   -1.31373835760095   28.10459462554935
H        -0.88478514474230   -0.32229084051763   28.26536666133752
C         0.68634321183016   -1.17346044126557   27.09409238817847
H         1.14667563277403   -2.13369884767636   26.86691308477256
H         1.44987867889972   -0.49794426031173   27.47952459613751
H         0.30163100010691   -0.75399208779707   26.16829438356618
C        -1.54070946749436   -2.24947025973183   27.59394087497011
H        -1.94972788956623   -1.86431790783455   26.66374587410678
H        -2.34880578605878   -2.32340555741733   28.31739174666425
H        -1.15173546145121   -3.24856154686570   27.40729545842139

