69
CSD_code = YICXAM | q = 0 | S = 0 | Stoichiometry = C30H26N6O4RuS2 | MND = 6
Ru        0.95242052419407    3.33192169214914    7.21550127330628
S         0.61636915645407   -0.14278535008134   10.14125985228623
S         4.94166692938098    4.15277077372508    9.46276357340010
N         0.40571280573778    2.28798889605533    8.85582827297472
N         2.47466231248665    4.07822660872901    8.23373582452745
N         1.87660956178230    1.56158911746979    6.75315473752554
N        -0.46482536805913    2.43977429888602    6.20206869437414
N         1.47929514118751    4.44905020924733    5.67802895526168
N        -0.12787116288565    4.92157708042767    7.59063153658617
O         3.29199837230140    6.73684646391009    1.67105078887878
O         1.53044567349367    8.03930648458638    2.16657734356835
O        -3.17396454916917    8.81835182797474    6.74181553322602
O        -3.71540925388757    8.11325406387465    8.80341319374768
C         0.54885221451254    1.24531322267654    9.39336956972609
C         3.52130870987158    4.07747492482632    8.77495848236803
C         3.10023085418340    1.16078262242142    7.08244657177575
H         3.78337987346186    1.92856477444439    7.42435034653610
C         3.49776007106149   -0.16337922114642    7.02415489627528
H         4.49574789240853   -0.43554886079110    7.32563003470511
C         2.58785440497701   -1.12685353429813    6.59907462067006
H         2.86634362018154   -2.16844131498845    6.56521977369106
C         1.32126643867854   -0.72499834512918    6.23265173492485
H         0.57732339840441   -1.43371714304229    5.90473840218271
C         0.98292808058784    0.62902665825090    6.32422064573753
C        -0.28822774070574    1.17488626869507    5.95709402718121
H        -1.03768094794506    0.57405767047186    5.45108332727731
C        -1.60073016907626    3.13944538510907    5.74240837156423
C        -2.67693147881344    3.36298470358101    6.61320337074843
C        -3.68589089054204    4.22784674425115    6.21732024766714
H        -4.50710205593150    4.41649116816928    6.89261063038572
C        -3.65284025771758    4.84281370394126    4.97882818618284
H        -4.43205429148620    5.53259244408341    4.69441451180726
C        -2.63410170174065    4.54562730126622    4.09510171626693
H        -2.62659451949881    4.98449649391968    3.10871145687961
C        -1.60564926612186    3.68269973432494    4.45180305013534
C        -2.76998748125419    2.63638553165397    7.91921278212171
H        -3.37755661667195    3.19410721676566    8.62703684685547
H        -1.78799947995955    2.45324138008430    8.35279460887056
H        -3.24368833790301    1.66611955846455    7.76105021718636
C        -0.56340892112639    3.32768593799682    3.42983987236021
H        -0.22133039446731    4.21855934892689    2.90608966421741
H        -1.00095213974882    2.65671012393547    2.68944398675336
H         0.29537823019803    2.82518755441401    3.87066983983498
C         2.46762328510756    4.19230606738981    4.81532916150793
H         3.03700106120564    3.28895098238826    4.99973978535325
C         2.77045317727666    5.00632046860133    3.74873616752314
H         3.58024380731456    4.76500366621873    3.08110344256283
C         2.00025411914405    6.15893393338290    3.54155641923070
C         0.98678514618518    6.44585181131334    4.44735975306481
H         0.40120331163850    7.34051662138975    4.30925165090980
C         0.75669729225509    5.58866960928979    5.51641996022511
C        -0.21080856859213    5.82064457270440    6.57503886986934
C        -1.13795012780120    6.85409793636329    6.59555976764306
H        -1.23456588278537    7.54182633296424    5.77100963530055
C        -1.97438092337722    7.00084947259944    7.69426956602052
C        -1.80919483499558    6.12591414034648    8.77543001060200
H        -2.40752666495744    6.24039803042098    9.66364908509442
C        -0.88193165653878    5.11404557962811    8.67658276791424
H        -0.72506181766209    4.41336922620395    9.48710354800293
C         2.22776471977516    7.08422714746740    2.40606217138989
C        -2.99723874479076    8.07262683516399    7.67389065574574
C         3.58542019307491    7.58549025426905    0.57044445707134
H         2.73943735100502    7.61841678330279   -0.11913951639753
H         4.46046009201492    7.16191055361990    0.08479163846979
H         3.79229531924792    8.59921433793050    0.91902390835709
C        -4.71829210356196    9.11707848219824    8.86291506814765
H        -4.26502644799359   10.10897492704682    8.81114164431077
H        -5.22980014481492    8.98030794532393    9.81191698913850
H        -5.41501819825103    9.00712006224320    8.02945202037320

