84
CSD_code = YICXEO | q = 0 | S = 0 | Stoichiometry = C29H49N2O2SiY | MND = 9
Y         1.12281634816604    3.98614166548867    2.82454238537508
Si        3.00574341802058    1.64773860062793    3.89490840293103
N         2.62069521605381    3.29661971194293    4.28448122687579
N        -0.01467807259078    5.53466300699147    1.97863874682874
O        -0.42338125416510    4.11787294997520    4.96467048111854
O         3.15191626798460    4.81168502796425    1.50712728759148
C         2.01307397188036    1.55326841977422    2.28272201004344
C         2.43200361229786    1.47068806671395    0.95491261912831
C         1.30653036540269    1.53503845723856    0.10075616679558
C         0.16058378507518    1.67562179577826    0.87980042604262
C         0.54918035019303    1.73129462769129    2.25729554762086
C         3.84199636590411    1.29193773100298    0.47859320142302
H         3.97071850107399    1.68683756917481   -0.52866724401178
H         4.10658632399747    0.23259187229834    0.45401615220697
H         4.53929955380208    1.79294769282250    1.14274630085887
C         1.33553588531240    1.45634705676148   -1.39558960598863
H         1.48286153139722    2.44214717523521   -1.84755366224731
H         0.39752786306990    1.05493488494436   -1.77328010183626
H         2.14175794777911    0.80707862352115   -1.73181700462952
C        -1.24886793896858    1.63058376769486    0.36501873447658
H        -1.50886593400559    0.61370997250490    0.06096456432482
H        -1.37596267983213    2.27881351225367   -0.50169047583283
H        -1.95819853224210    1.94283292318558    1.12865175465281
C        -0.35914183804095    1.19866490805395    3.35685909858854
H        -1.37196662119162    1.59830219111550    3.27351443207722
H         0.02760865859259    1.42284090938326    4.34977363698419
H        -0.43098051814224    0.11009427886354    3.26508215771946
C         2.41742592141650    0.35513304748551    5.20018304492642
H         3.25815440163000   -0.03832370405091    5.76274068164085
H         1.91782490580639   -0.48654819082261    4.73273518260897
H         1.72848471975650    0.79255076928473    5.91746401029326
C         4.88357015300402    1.28919625989024    3.72153555226624
H         5.41964988223457    2.10799056694540    3.25191571350446
H         5.06319038799854    0.39151666344688    3.14128969569715
H         5.32802371847730    1.13860527886504    4.69972998519633
C         3.13567634205447    4.06769289206503    5.27651356370241
C         3.95448104553456    3.58598714413057    6.31461661198236
H         4.19067866525802    2.53363314383161    6.33610107628687
C         4.43913364886672    4.42692186906652    7.29212992104004
H         5.06404222869987    4.02287887857160    8.07724756259110
C         4.13704440043397    5.78091247849571    7.28640193039756
H         4.52185868359308    6.43331677786110    8.05570963638731
C         3.33136452913923    6.28273549858115    6.27564805781771
H         3.08555886225318    7.33673272930813    6.25560300574219
C         2.84045017267279    5.44820883179481    5.29430622531882
H         2.20175329145539    5.84429493155719    4.49551416134958
C        -0.74968619231518    5.43007774298867    0.72687776106855
H        -0.35062988849002    4.59717663045869    0.13153397733121
H        -0.63870210837957    6.34998929768554    0.12905341378756
C        -2.25287485667463    5.18128576960932    0.94944373185390
H        -2.38705458786750    4.28402678548247    1.55086255306663
H        -2.76282698791376    5.05044201128789   -0.00217610040817
H        -2.70654144473732    6.02038378191892    1.47313499231152
C        -0.02814028953335    6.89994311578907    2.48094674265863
H        -0.95233288725465    7.41560057700341    2.17618366628466
H        -0.00505884604355    6.89613421199965    3.58183776813290
C         1.16830519350774    7.73517959822171    1.98435969297700
H         2.10239182876866    7.25731687271411    2.27973360858025
H         1.13439227401169    8.73751239030717    2.40717067764384
H         1.14658212157540    7.81609756562467    0.89920022390695
C        -1.82124049828228    4.43245133594103    4.91542673736635
H        -2.37753237536261    3.53628581070994    4.60639396663906
H        -1.96796089316340    5.21854983696489    4.17133196201950
C        -2.21592512687213    4.84093653434397    6.33032033507250
H        -1.96256409245899    5.88607074096485    6.50951704471805
H        -3.27529743705738    4.69233648066125    6.52433221500438
C        -1.31587129947492    3.92908839957230    7.15961716657522
H        -1.73599463873133    2.92360073085713    7.20330072390992
H        -1.15467807141569    4.28953760528372    8.17223654322727
C        -0.03110111510055    3.94019350562345    6.33624891301788
H         0.54620051211019    3.01561158967018    6.41733960790926
H         0.61700676820504    4.77676365896163    6.62531052706364
C         4.47814893313899    5.05359014696453    1.99488450587648
H         4.67787501541476    4.34520834651940    2.80187795666259
H         4.53181704440680    6.07512125051356    2.39842662947445
C         5.40268569499073    4.90233918543744    0.79299588078586
H         5.62996374308182    3.85100628673746    0.61856356890674
H         6.33180478963095    5.45362251642640    0.91447351355524
C         4.52364425070479    5.44452510768065   -0.33089436068172
H         4.53764121674920    6.53530046117075   -0.32773324382284
H         4.82254747652734    5.09124013389984   -1.31479733610191
C         3.14635798061495    4.92384011549449    0.07406217907519
H         2.33302440345085    5.59565300021154   -0.21652243338860
H         2.95796585321312    3.92872760303982   -0.34423816991348

