70
CSD_code = YICXIT | q = 0 | S = 0 | Stoichiometry = C31H34FeN2OSi | MND = 8
Fe        2.81428529671425    5.48187111850335    5.24322491590450
C         2.35663368767503    6.94530506403452    4.42033127372792
O         2.00791519272544    7.93691903534221    3.92893195272810
C         3.40158488322921    4.56121795691457    3.66328344401426
N         2.23677262177083    4.14882400529994    3.88680268031191
C         1.14103423752287    3.45855137699468    3.26750617647537
H         1.49617679799450    2.89068802268946    2.39527145471907
C         0.11213954380937    4.49932171466172    2.81913452145691
H        -0.17635197782445    5.10480014505637    3.67579725786472
H        -0.76686311954732    4.01153750571575    2.40622087143502
H         0.53682885664792    5.15686123232691    2.06568166808165
C         0.51997247395635    2.50631573899095    4.28756852818203
H         1.23953533636759    1.75100315040408    4.59146633291016
H        -0.34980579085212    2.01070315534564    3.86436693634156
H         0.21640606173250    3.07344838214314    5.16445712569515
N         4.36922825641039    4.27029906495021    2.78026162058293
C         5.54029896786116    5.15050881206920    2.76270964755176
H         6.22530245355465    4.73920469445308    2.01518144420057
C         5.13194993630446    6.55717792313317    2.34201743949441
H         4.65518048907250    6.53731783958446    1.36485190989788
H         6.00521781882005    7.20125412534079    2.29015385828465
H         4.43206499262599    6.96356617939901    3.06930716141022
C         6.23162259546149    5.16191638951500    4.12004670649916
H         5.54459217900610    5.55716248799898    4.86822337197241
H         7.11845389805062    5.78809398618418    4.08394245819612
H         6.52885801261331    4.15373608601672    4.39992171283814
Si        4.34668455515280    2.76433667152403    1.86717083814684
C         6.11898965389703    2.36527364017481    1.33123559692671
C         6.98333985182285    1.66381781163145    2.16682078941897
H         6.63231310034560    1.33321772767315    3.13412299494694
C         8.27868658449504    1.37734459685338    1.77561089647510
H         8.93480279212537    0.83218681254932    2.43877032171986
C         8.73356287482987    1.78620158791675    0.53333241608112
H         9.74451368030239    1.56305653735085    0.22516808737335
C         7.88510077681124    2.47905279347625   -0.31396304187304
H         8.23303191381221    2.79766574577691   -1.28595812457045
C         6.59130704667475    2.76305887864734    0.08345074093138
H         5.93283408453079    3.30175594584717   -0.58332050014147
C         3.76108811358742    1.41668108570854    3.06170851292301
C         4.08437484059777    1.49874074499408    4.41444981242581
H         4.62884472004780    2.35819887126097    4.77813700494410
C         3.70534790723856    0.50822549701594    5.30197076110282
H         3.96684016228621    0.59108362898224    6.34734139103982
C         2.98910425519458   -0.58838970769454    4.85130991978495
H         2.69071123258262   -1.36336404887616    5.54221390399114
C         2.65145457161255   -0.68236739681988    3.51151980075007
H         2.08667286467614   -1.53177861944500    3.15542962838956
C         3.03627022017652    0.31073341460244    2.62846949574655
H         2.76318770427849    0.23155411748666    1.58626555801593
C         3.27854696085166    2.98426588079017    0.32042698195145
C         3.21649027914321    1.98363097665220   -0.64653720005331
H         3.78954266500936    1.07784711705348   -0.50627191941855
C         2.44781144226247    2.13854407316785   -1.78558154158041
H         2.41157007155404    1.35022610345985   -2.52368473529599
C         1.72774129715873    3.30543234798401   -1.98206425005054
H         1.12631295781111    3.42787933666528   -2.87089469886371
C         1.78848020646259    4.31692238443416   -1.03834034845377
H         1.23628129892770    5.23299827647896   -1.19042572142663
C         2.55864692667985    4.15576377549781    0.09894966931062
H         2.60798641431924    4.94935691741871    0.83090381625434
C         4.03035445616022    5.93246695631432    7.22333360614430
H         4.86964345679960    6.59497252256946    7.36168696907781
C         4.09210027920437    4.53626514785147    7.05318772851386
H         4.99222569769976    3.94540160995683    7.00021156945215
C         2.77502809720131    4.03094632241012    7.06846063737094
H         2.50330566735015    2.98770190153867    7.05279252862004
C         1.88658643732428    5.11475863098918    7.27683657233579
H         0.83063443294236    5.03678785284859    7.47655021615888
C         2.66260483886434    6.28816730567428    7.37120793707024
H         2.29800890748011    7.26877303055125    7.63453290757529

