80
CSD_code = YICYOZ | q = 0 | S = 0 | Stoichiometry = C39H30BN7O2Ru | MND = 6
Ru       -3.14189579270868    1.35944437438389    6.41780046354285
O        -3.91090647133941    0.55202266024860    9.01338306285917
O        -4.90188513767010    4.82248767136878    6.62462814947729
N        -3.61173686257365    0.87043519748264    7.93336061461291
N        -2.51868817603417    2.05148895120682    4.55666177704950
N        -1.80197679636432    1.26739223388410    3.73624199508790
N        -1.16515965955731    0.48017462888676    6.48426749409901
N        -0.69341929774781   -0.17248890824158    5.41824393298819
N        -3.64925078880837   -0.39381249386739    5.28229981756574
N        -2.82073315972715   -0.87848053851215    4.35349144575961
C        -2.67967815071626    3.22577215052356    3.94472874338933
C        -2.05404949858139    3.19857338150771    2.70278610109637
C        -1.51066037358899    1.93303531352605    2.61324274206344
C        -0.33877820032462    0.25928376283496    7.49664748258184
C         0.71105484073446   -0.55390854090300    7.07381312585909
C         0.44343027570909   -0.80375552619259    5.74431393057519
C        -4.75447519940195   -1.12521598591030    5.26820707392136
C        -4.64164331488240   -2.11871277538867    4.29725057697218
C        -3.39536866292809   -1.92190233546592    3.73923888308937
C        -4.87203614612402    2.44562976878128    6.11459652461348
C        -4.37042756152773    3.73008787722284    6.67136474523943
C        -3.01994414549960    3.31905796810664    7.09292375926363
C        -5.92227454404981    2.09076300852340    5.47160560133885
C        -6.92024153174754    1.53792026770128    4.79416632105645
C        -8.03784762621811    0.92109018049503    5.51372824327677
C        -8.72025383638142   -0.17166508094411    4.97967563984707
C        -9.74875110741705   -0.76669062924632    5.68551421156033
C       -10.10905927096066   -0.28858408684979    6.93464171001118
C        -9.42618717406700    0.78699093965300    7.48014428507247
C        -8.39869420192972    1.38665793730148    6.77898821648023
C        -6.87166496803508    1.53664271539926    3.32712089958157
C        -5.64365252197164    1.42838408918511    2.67460507207282
C        -5.57334586776459    1.42372723084078    1.29610655617821
C        -6.73124132150223    1.52861152250791    0.54213893113525
C        -7.95581684566350    1.64561557398156    1.17935417748726
C        -8.02924002966343    1.65182679535426    2.55957138558650
C        -2.10799021044709    4.08627440876634    7.71871806250861
C        -2.42823617193403    5.38765832524652    8.33092759397381
C        -3.55173192612628    5.53542142422320    9.13965328783916
C        -3.82891661771257    6.75296322940362    9.73053184217743
C        -2.99061874368634    7.83605143411966    9.52285622975667
C        -1.86566386324466    7.69408633115224    8.72759904435916
C        -1.57985881469018    6.47577465471427    8.14093857399791
C        -0.70290274475951    3.65551069514689    7.83740677033192
C        -0.05406455668979    3.66201628404919    9.06931431394825
C         1.26530744816123    3.26036346498176    9.16573814398241
C         1.96043787551357    2.87047463992246    8.03222653246175
C         1.33064553895981    2.88583249873870    6.79918677969751
C         0.00598458050458    3.27062998159459    6.70189202112966
B        -1.46970658387363   -0.19185887289336    4.09408104609884
H        -0.86214770709715   -0.72485386717664    3.23405399961678
H        -3.22566599965426    4.03390776713745    4.39644962773882
H        -2.00965072955661    3.98562853103769    1.97972016503320
H        -0.94268179285013    1.47446155545752    1.82958739279151
H        -0.51463443863199    0.69299824906246    8.46299632885672
H         1.53891016393448   -0.90473259246250    7.65341489815311
H         0.98335622914431   -1.38206730570257    5.02260166275387
H        -5.56984368899551   -0.91529393946692    5.93469623362896
H        -5.36360016471621   -2.86573550587831    4.04186287969043
H        -2.89225583652933   -2.45032401371354    2.95539807996649
H        -8.43062194975104   -0.56336096410543    4.01468987345101
H       -10.27047535985481   -1.61210969605817    5.25977931956767
H       -10.91570860040689   -0.75406646367461    7.48162791043412
H        -9.69956901118786    1.16121741719852    8.45605664806539
H        -7.86829597405538    2.23013036774326    7.19712379418796
H        -4.74374221649821    1.33812046806428    3.26728390815619
H        -4.61311993578493    1.33511897234406    0.80709594411069
H        -6.67913883054054    1.52247459706428   -0.53665056744656
H        -8.86026084318009    1.73723634191668    0.59525850628595
H        -8.98576868499624    1.76107289241669    3.04994117582081
H        -4.19870656680247    4.68756802321777    9.30929702345500
H        -4.70355422399794    6.85873007352386   10.35541516650645
H        -3.21198385560432    8.78849463871190    9.98191802892169
H        -1.20741692493031    8.53560466775699    8.56566134842693
H        -0.70380356239354    6.36448099384140    7.51719926483864
H        -0.59627713923945    3.97157803173337    9.95126177194162
H         1.75702313837364    3.25678254909556   10.12767993576318
H         2.99328136386777    2.56421331033151    8.10891394191479
H         1.87422709002846    2.59721177891106    5.91062047792553
H        -0.48036003108502    3.31031532313099    5.73672132477788

