74
CSD_code = YICYAL | q = 0 | S = 0 | Stoichiometry = C33H29BClN7O2Ru | MND = 6
Ru        4.60250321826488    3.01710589159509    6.24320912033196
Cl        4.47920815213707    5.82419439786723    8.54743288623706
O         6.35901865732975    5.20008454865504    6.05557624834260
O         6.18161241338440    3.54576582006817    9.39244367166469
N         5.61730201803376    4.33334343733072    6.24744053645825
N         3.36333638640762    1.35000183854748    5.99332924770952
N         2.75048794469064    1.16718694744656    4.81296148990872
N         5.31045292459528    2.41655645838981    4.27905274654224
N         4.42971367445891    2.16349327376865    3.30784093845792
N         2.97008179170612    4.03215152338852    5.20897736576576
N         2.47878220381006    3.50785640939420    4.08270382571794
C         2.98738239232760    0.34603624826907    6.78679277673887
C         2.11767623599067   -0.49987757671532    6.10870560271909
C         1.99670514284629    0.06381214026839    4.85551564635567
C         6.52644794308248    2.37705743223844    3.75282057766206
C         6.43333238936798    2.08126569596952    2.39356504628450
C         5.08053916018238    1.95340054354345    2.15516672987272
C         2.40189027032669    5.21592666267706    5.39379222791429
C         1.50611572784215    5.46716061339125    4.35569826278189
C         1.58805937806359    4.35326539554090    3.54561096260526
C         4.02951050327274    3.18986122758875    8.29209236833001
C         5.48446898520085    2.93880623568542    8.60876581094234
C         5.88902599164553    1.94332681722663    7.56901109062586
C         3.42791971258253    4.44690895218733    8.72447568189158
C         2.16632294974902    4.62156149098985    9.16813275488221
C         1.18232743427392    3.52246475237488    9.15282317231310
C         0.93345680119512    2.79264594720612    7.99241275476486
C        -0.01997141014704    1.79192968964778    7.98032258671291
C        -0.73957653730393    1.50325358462567    9.12810015724958
C        -0.51094072590493    2.23336595873762   10.28293451996363
C         0.43564341640661    3.24082441297703   10.29444490535803
C         1.64932194101700    5.90580830021747    9.66989206062385
C         0.41994030455676    6.37590509484572    9.21196427205416
C        -0.09242069899583    7.57116237038537    9.67914024675320
C         0.60811876546821    8.30805434359129   10.61973461339359
C         1.82244830898872    7.83974462997179   11.09296395283195
C         2.34154714942035    6.64768168482340   10.62344262933057
C         7.30082315077233    1.81885593742909    7.16829031833987
C         7.73599488850456    0.64995670409489    6.53966557692998
C         9.03511055459707    0.52157978311201    6.08898162659901
C         9.95028858254401    1.55316686284564    6.25273294276579
C         9.52461850932581    2.71469589497776    6.88912158155049
C         8.22707221536828    2.85168178375970    7.33838426654782
C        11.36544509184289    1.42229286563891    5.77716707227340
B         2.92644174530878    2.11747404930482    3.61219787097548
H         2.30295338693791    1.75221409431734    2.67878384031391
H         3.32763498927026    0.25109194109063    7.80127439537694
H         1.64884125817211   -1.38662317012205    6.48066700296072
H         1.42682617113765   -0.25180574336754    4.00563242354240
H         7.39991356809683    2.54616745419108    4.35389932734519
H         7.23489942017066    1.97809560692831    1.69260727048489
H         4.55193700048605    1.72824405254074    1.25148433808473
H         2.64196618890663    5.82258770074755    6.24643964937139
H         0.89286407536524    6.33311654979989    4.21961832226660
H         1.07398414311736    4.11480786002867    2.63697512921814
H         3.40694907441475    2.34375643800463    8.59876410704676
H         5.44290211618794    0.95934983220921    7.74736532470763
H         1.47886188069134    3.03591050971242    7.09102835427504
H        -0.20620951826740    1.23793612242415    7.07079552699067
H        -1.48163785259097    0.71860242413313    9.11970900119229
H        -1.07616169256874    2.01776856488918   11.17783842204215
H         0.61043555307003    3.81287039258343   11.19385646729259
H        -0.12584232869766    5.80091519900201    8.47682245247733
H        -1.04272540156651    7.92911868934996    9.30967134805576
H         0.20630079368293    9.24134529252347   10.98617805108131
H         2.36716596615512    8.40516375106859   11.83498210889557
H         3.27930276093669    6.27807574048869   11.00936473280313
H         7.03841653951275   -0.16485031439736    6.39534799669065
H         9.34338797508282   -0.39370596850146    5.60241612872078
H        10.22479306976085    3.52551439074215    7.03243609438795
H         7.93208756697024    3.75953119897928    7.84200336840251
H        11.48207267157157    0.55432859393368    5.13244721246610
H        11.67062877624077    2.31208884717745    5.22873229038811
H        12.03796619321725    1.31028687364974    6.62792856904567

