69
CSD_code = YIDBOF | q = 0 | S = 0 | Stoichiometry = C28H37ClN2Pt | MND = 4
Pt        7.05493643162353    4.81172877683685   11.29238903524044
Cl        7.18555559589433    2.62521539375410   10.80771093196436
N         7.57565909171472    5.42301899989871    9.32128521791244
N         7.04438666518135    6.79991739995899   11.51794845173977
C         6.22384475328614    4.31745113891051   13.11940238375682
H         6.48174845919171    3.29698945353378   13.42415396114686
H         6.60999784639830    4.98192108184323   13.90350258382967
C         4.67766407480806    4.42980176163658   13.08470141842501
C         4.06958098680472    3.08300572853435   12.66034870420355
H         4.13642278700306    2.37568512730584   13.48367939887781
H         3.02164561381892    3.20005901180960   12.38977603582828
H         4.61136792279389    2.65594122375942   11.82176028015254
C         4.15913014627647    4.74680114834757   14.49449659011115
H         4.41472957452416    3.92867487479182   15.16424543098705
H         4.60633603528292    5.65235204230012   14.89773180924235
H         3.07648968220962    4.86063524892560   14.48830009788456
C         4.29117628077660    5.51186293031509   12.08244742104612
C         3.94628598226422    6.80390874089274   12.45835419390369
H         3.88066752905942    7.07317565160955   13.50023527059692
C         3.68273148171251    7.78415289429454   11.51263079213953
H         3.42294653813870    8.78099336985215   11.84068554405695
C         3.75140358405448    7.49419518665509   10.16471348533671
H         3.54981399495168    8.25936211002784    9.42814020271206
C         4.06716189342032    6.20376268550316    9.76779482422525
H         4.09738891217571    5.95474096543761    8.71560556747679
C         4.33797146735091    5.22685198040581   10.71048170507903
H         4.52920713021012    4.21682966083379   10.37049877232599
C         7.73528627523467    4.64106054858618    8.26187473622675
H         8.03057005111579    3.62032437059758    8.46758268872678
C         7.53227964867081    5.08135784600601    6.96982541268377
H         7.68008724236297    4.39059390737424    6.15592489378914
C         7.12779288867255    6.39810759849997    6.73758928713378
C         6.97207221044307    7.20566870255967    7.85511681576748
H         6.63923832883380    8.22294064112348    7.74992114404012
C         7.20734535472801    6.70058047706289    9.13291870513488
C         7.06979822573616    7.49256177714676   10.35678554530079
C         7.00257265638133    8.88344650685700   10.33534743954799
H         7.04537079729834    9.38381203255837    9.38426569387267
C         6.89599313421555    9.61684256194644   11.50587715266707
C         6.89451812462076    8.87579582911117   12.69069889188414
H         6.83078232751235    9.36108135879732   13.65090847351932
C         6.97232413050353    7.50312392987891   12.64924435876049
H         6.97504047340204    6.93644725915785   13.56811130195384
C         6.86830464521781    6.87777965476943    5.32201921439422
C         5.74176273469494    6.02846356968268    4.71643643161011
H         5.52900633726702    6.36102639864074    3.70308347874569
H         6.01311570293239    4.97715641181686    4.67993696735411
H         4.83410234812368    6.12651789155004    5.30854226653252
C         8.15162248532057    6.70796883214909    4.49688483071122
H         7.98800909292259    7.05835418016865    3.48043833999271
H         8.96252647199011    7.28688567563751    4.93450499718356
H         8.46075424637816    5.66762064365267    4.45115600751034
C         6.44941570118954    8.34917350505239    5.26617737989110
H         6.28072580857737    8.63681704520147    4.23086559575523
H         5.52398097118676    8.51562141690395    5.81307196770493
H         7.22693254158807    8.99437638200458    5.66974168397607
C         6.78629282803218   11.12791553267315   11.54337793169401
C         6.83282804545682   11.75434937914928   10.14760820251403
H         6.74580903571151   12.83512204223720   10.23369195149091
H         7.77426980225218   11.53320123907458    9.64957102770988
H         6.00858793753261   11.40112028197262    9.53207486528219
C         7.94962480459130   11.69441818180043   12.36931975136165
H         7.89781785176438   12.78053105798613   12.38711928453330
H         7.92073421155685   11.33665963455742   13.39451539030934
H         8.90175620603176   11.40191096273007   11.93153866655234
C         5.44930196661486   11.50157747836311   12.19885137843849
H         5.34586904342680   12.58325460309000   12.24379976088703
H         4.62168705247775   11.09975210304604   11.61829163382207
H         5.38053979647785   11.10944596100152   13.20966834256407

