65
CSD_code = YIDCOE | q = 0 | S = 0 | Stoichiometry = C30H26N2O6Ti | MND = 6
Ti        1.81637398510903    8.30726361289696    6.94297531230631
O         0.73578509001099    7.89867192258283    8.21845159575493
O         1.41103905801692    7.18256555754198    5.66885480318006
O         0.77796451348778    9.72235531455167    6.26841330463182
O         3.30214082032659    7.45773777935898    7.69147458903371
O         4.54904116972669   10.83559630352492    4.83183918311129
O         4.38020562003486   11.41336869832566    8.53065119987721
N         3.21683329858636    9.15834184158806    5.47483415418284
N         2.69242501297775    9.95799697995123    8.30956906126723
C         1.02588770031763   10.95148813052769    5.97288778709605
C         2.31906877453795   11.41797135812830    5.57775541266587
C         2.55165382722912   12.78245140985907    5.35965112550597
H         3.54786843034398   13.09545775205514    5.08312972899548
C         1.53639923767288   13.69797471574998    5.48479634676658
H         1.72376795910150   14.74772009718878    5.32263019687554
C         0.25156591397934   13.25496558897173    5.80303734112080
H        -0.55415970900027   13.97135778377997    5.87430933861126
C        -0.00051783323609   11.92653554221536    6.03216911280832
H        -0.99368649278629   11.58531176914308    6.28636021802096
C         3.34829910977484   10.45560179396569    5.34031205889898
C         4.37854530843502    8.61365744056016    4.98527121481512
C         5.21887214502099    9.67373446783167    4.59995452167539
C         6.48069704821288    9.46209255091892    4.08091678654160
H         7.11915668034153   10.28263424658192    3.79726740015911
C         6.87072913027314    8.14166151617122    3.93551723152181
H         7.84798248977288    7.92668914018546    3.53135847143020
C         6.03156243906179    7.08296077177503    4.28187535786263
H         6.38036929401794    6.07284865795302    4.12928734255624
C         4.77335295315779    7.29408899779384    4.81057918688412
H         4.09985679907739    6.49352600931039    5.07786930496985
C         4.54287394598977    7.78413217367475    7.81733487331488
C         4.97413521951830    9.13080901159424    8.02066418213027
C         6.33890268015188    9.44565415756080    8.05346685861858
H         6.62595488775802   10.47836190688328    8.18732755023188
C         7.29055239730620    8.46326314646714    7.92939906841215
H         8.33951246906246    8.71372588904863    7.94940706264850
C         6.88880058579791    7.13331798996570    7.79915774314611
H         7.63723379756124    6.35713850816684    7.72959058752606
C         5.55886640282252    6.79981146869412    7.75194026006886
H         5.24655020700986    5.77124984606751    7.64389056707124
C         3.98914497821208   10.14330502653766    8.24925677949421
C         2.16663227400083   11.17058153214312    8.69098746821381
C         3.23179996870732   12.08191268196444    8.81488684499903
C         3.04342914646152   13.40205445503469    9.17183444043450
H         3.87178788527907   14.08657009989006    9.25331399980124
C         1.73936635770137   13.78975095607888    9.42521088708863
H         1.54137514033575   14.81157821885886    9.70994239967918
C         0.67733811185310   12.89189518221818    9.33067614639650
H        -0.32020509152207   13.24179928581267    9.54918948717575
C         0.86594049040294   11.57384272633366    8.96444841228862
H         0.05081384742935   10.87249110931052    8.88407810210186
C        -0.59709902843650    8.05172150383529    8.53775569202196
H        -0.68546880063876    8.70193455139101    9.43046442255094
H        -1.12756367495251    8.53695282304832    7.69368587887271
C        -1.27302465509274    6.71171738926196    8.86024939170691
H        -1.25964661143065    6.06652035196138    7.98501504514575
H        -2.30297285785835    6.87521880907181    9.16877845718031
H        -0.73346320548981    6.21849257577690    9.66644038462058
C         0.81718656088927    5.93651401043477    5.70815494556047
H        -0.26940199652556    6.04972910489814    5.89528083921808
H         0.93794193114442    5.45072756683759    4.72086226511260
C         1.43162475580548    5.04793254918661    6.79745065486888
H         2.46725062522509    4.82083682847173    6.54732348910667
H         0.87640285553407    4.11664210392148    6.89425463346526
H         1.41404862640785    5.60028670860735    7.74058149060248

