51
CSD_code = YIDDOF | q = 0 | S = 0 | Stoichiometry = C14H24Cl2N2O8Pd | MND = 4
C         2.64203337928053    0.81025597762461   13.41654619453535
H         3.07917016357415    1.30512698079409   12.54658353668167
H         3.37948790832492    0.84520472121510   14.22826917776312
C         2.34731147176493   -0.65309170997450   13.07074063615871
H         1.96534278320082   -1.16327401949446   13.95765806551714
H         3.28194787457968   -1.14680056506685   12.77625154505762
C         1.61659743240237    3.00049641138066   13.61605341144961
H         2.59943696489738    3.32829589856029   13.97761875990619
H         0.84367704072198    3.53696642890260   14.17050728896105
C         1.44907025836719    3.39731399179412   12.15718750960248
C         1.00318316720282    5.15206741676207   10.69499641539004
H         0.81863353668242    6.21939871709069   10.77598746930872
H         0.11811936449640    4.63332442190865   10.32221956873697
H         1.84293386050311    4.95408310313550   10.02621669316497
C         0.93652938584489    1.25193413556306   15.12922030931514
H         0.73654924897091    0.17994169269261   15.22371702592830
H        -0.03212384789531    1.75313684842595   15.26123345939951
C         1.86280287152125    1.67267990284159   16.25758670824117
C         2.06543864644504    1.74739205879213   18.59118457921529
H         1.47572796769909    1.42878213236701   19.44603789743997
H         2.22813874471182    2.82635460781961   18.61775882986316
H         3.03456491561213    1.24479953362302   18.58263092025457
C         1.83906039910452   -0.48910905869586   10.67263004177193
H         2.25082850144861    0.52459929746479   10.64177305906902
H         0.98820588331868   -0.49141310459915    9.97754074686336
C         2.89219348835588   -1.45630034215029   10.15881976258785
C         4.23983833509312   -1.94980803445361    8.30321768533273
H         4.55264649106865   -1.42792319486155    7.40313547818842
H         3.80008296352000   -2.91610307052206    8.04968975609757
H         5.08735791482890   -2.11144109739879    8.97197292891209
C         0.69724811147082   -2.10822764101995   12.04627126908293
H         1.42811546768400   -2.90807142077223   12.21999684076852
H         0.19410631337256   -2.29574395227819   11.09535417403042
C        -0.38122670143501   -2.15804521818515   13.11779630589229
C        -2.30018726060629   -3.25351386171270   13.84691154074261
H        -2.89633182245222   -4.10142331060715   13.52215518858137
H        -2.87064244917759   -2.32620876088429   13.76791526101089
H        -1.97067943226545   -3.38489600372173   14.87935834187617
N         1.42800095823532    1.55760854640154   13.78657125345262
N         1.33321948899289   -0.78866723118153   12.01131976501912
O         1.30050042743542    4.70025044701371   12.01448509732234
O         1.47181428812747    2.61054567109062   11.23666802949582
O         1.31330654264129    1.39112543121112   17.43700746606177
O         2.94709046717580    2.18456047793616   16.12715939791797
O         3.26815990338207   -1.11840441075046    8.92733338003337
O         3.34275035659229   -2.39612630690791   10.76581520972326
O        -1.17758186512748   -3.19908110285956   12.96916862492193
O        -0.48141463172542   -1.34793635023406   14.01259355014802
Cl       -1.45321385512086    2.45879262917141   13.01311291994819
Cl       -1.53163725500482   -0.10398440695589   10.99565111150548
Pd       -0.06318416794742    0.78345669315528   12.44916981175053

