71
CSD_code = YIDDUN | q = 0 | S = 0 | Stoichiometry = C30H30ClF4IrN2O2S | MND = 8
Ir        7.43081772643663    7.35785292930563   18.65685590872348
Cl        5.87606594958091    8.38471641353257   17.25682360166584
S         5.09117647132008    8.46380512173361   20.29251588880251
F         6.74657752913260    7.28938386832001   22.60536040258688
F         6.44409591655766    7.72594249518008   25.25292561652386
F         4.48273870097101    9.39297218606173   26.15106159634713
F         2.81104609236578   10.59926729607702   24.35907479398968
O         4.75924921765091    7.08534726764304   20.05886085158576
O         4.24420946612411    9.48270292282141   19.74543873775349
N         8.52500367689965    9.24476929066160   18.22113405499857
N         6.66526114812725    8.68862308600758   20.07627322970810
C         6.82984286449559    5.23143857047687   18.36514415741868
C         7.34968691502427    5.27791240585990   19.69676464533089
C         8.68797635170147    5.75495069179982   19.63353141314863
C         9.03092975975275    5.91258438102669   18.23946225800886
C         7.88449562434708    5.58576693729960   17.45244380798512
C         5.48014452465573    4.71652212803768   18.00409676932857
C         6.62064579053731    4.77110095977061   20.88938812573727
C         9.62840221791465    5.85008360698403   20.79068638031595
C        10.40534646982958    6.19214425876596   17.71635825490483
C         7.80640987311961    5.45340922150518   15.96384609621507
C         4.90593845522447    8.69149188667673   22.10740282822375
C         5.75114411420819    8.08438024956385   23.01477521271911
C         5.60968159407834    8.30828834240885   24.38170653602340
C         4.61079895671930    9.15941148427629   24.84071377698398
C         3.76433933836287    9.76953983073264   23.91939531357603
C         3.91058381572973    9.53280657365902   22.56511321375509
C         8.42106754100924   10.19460415597921   19.33825552789763
C         6.98660565155786   10.09273395791180   19.89429059164320
C         8.71619387174608   11.62023887933678   18.94592122985053
C         9.56329451291959   12.39819820136101   19.72358306853681
C         9.80527561303864   13.71979521885251   19.39200979892079
C         9.20338243805989   14.27622717888448   18.27686640115969
C         8.35235052508001   13.50828090487116   17.49986166150572
C         8.10606030590981   12.18858876701503   17.83314956294722
C         6.84974424182356   10.82728309450931   21.20294832552996
C         7.58317667061267   10.42569152804445   22.31290726757939
C         7.42796009860171   11.07037804602315   23.52671783941052
C         6.53650345398883   12.12383209698990   23.64422565570114
C         5.80484735246034   12.53000688942997   22.54162611785693
C         5.96168489867734   11.88586497304246   21.32638778082796
H         9.48988566826513    9.18287765270968   17.90308268192442
H         7.95142272769966    9.58363109254299   17.44012958087383
H         4.73154552884032    5.21244730390789   18.61949783109946
H         5.25817183791206    4.90618782290911   16.95807827942764
H         5.42596592326391    3.64327209745570   18.19303769725090
H         6.42161744421521    3.70594129550152   20.76277115782611
H         7.19290304842232    4.92111531002068   21.79854762600344
H         5.66609014405085    5.28553290455445   20.97574963719375
H        10.46026463628744    6.51366331408374   20.56876415273620
H         9.10742195710255    6.22764111585744   21.66665480202362
H        10.03312893338656    4.86489103729495   21.02835022648565
H        10.36754331626866    6.67493617402261   16.74261446885941
H        10.96774440921227    6.82389289619333   18.40003829342152
H        10.94703785237698    5.25126841609437   17.60768913635540
H         7.62732288518638    4.41297355621805   15.69331670750221
H         6.98708318812116    6.05549246367460   15.57577153012920
H         8.72761406587219    5.78066618764678   15.49067985904419
H         3.26701542478014   10.00992719387196   21.84360017983773
H         9.11616535376302    9.86614048935321   20.11718525755318
H         6.29136494971822   10.53513024920741   19.16535289305665
H        10.02819565476856   11.96821151172665   20.59892397959053
H        10.46391564536954   14.31517263656005   20.00633895449354
H         9.39236503294211   15.30674882793332   18.01651608717248
H         7.87349848863178   13.93976695256392   16.63380015137339
H         7.42293937323491   11.60729435178502   17.23004112250294
H         8.26155897017860    9.59005864618319   22.22523669883677
H         8.00172285307872   10.74960368149018   24.38420867339732
H         6.41218600230092   12.62447026111269   24.59281527581505
H         5.10764766784923   13.34962460337591   22.62916899553200
H         5.38320528057172   12.19358165571859   20.46893376094937

