63
CSD_code = YIDDUL | q = 0 | S = 0 | Stoichiometry = C18H32Cl2N2O8Pd | MND = 4
C        -6.64605007955979   -4.09487813828039  -18.12599154886413
H        -6.02730292860619   -4.66064562710977  -17.42532121670725
H        -7.69557134767272   -4.34179126413716  -17.92550125520615
C        -6.29352037923547   -4.50668693459452  -19.55720852961422
H        -6.46415499947602   -5.58306610247248  -19.67860657344464
H        -6.94888395246298   -3.98257743572577  -20.25461150254013
C        -7.41781713090562   -1.77947973505601  -18.43637219903509
H        -7.51764212232566   -1.95185346793296  -19.51227706856364
H        -7.07803594304133   -0.74260771922022  -18.31921083295176
C        -8.79378350586775   -1.91136666528573  -17.80210464382793
C       -10.95531029257185   -0.96211513471555  -17.80279502637406
H       -11.54087249349855   -0.49437929715116  -18.59604400511989
H       -11.29961655953651   -1.98819180635936  -17.63752443611801
C       -11.03772023823245   -0.16133442952742  -16.51196325416765
H       -12.07311352070046   -0.09498526929971  -16.19108841991790
H       -10.64796125090934    0.84158199938215  -16.66688695710564
H       -10.45867210650642   -0.64941562991275  -15.73176553189891
C        -6.21627517807684   -2.40304006370554  -16.44619082251360
H        -6.34068624163052   -1.33680219047784  -16.24735665388584
H        -6.94568542221666   -2.95939460462600  -15.84354092247587
C        -4.80679393367188   -2.76800109817200  -15.99487575523569
C        -3.15918585234868   -2.36472962630274  -14.37602230077520
H        -2.48430290813861   -2.28132857979638  -15.23368765893563
H        -3.00242696712849   -1.52625104901208  -13.69582517170294
C        -2.96287466713075   -3.69608479254859  -13.66739605762702
H        -1.95466514240482   -3.74503321210041  -13.26690679477561
H        -3.10176429375776   -4.51744833789644  -14.36577136700434
H        -3.67383091805952   -3.79825350403813  -12.85074816633360
C        -4.74405290817762   -3.95158627379276  -21.34904509504837
H        -5.30266779719453   -4.69649562951254  -21.92943884636161
H        -3.68603885634737   -3.99938974331814  -21.61272406354600
C        -5.23166566968513   -2.54279917478053  -21.68006445715651
C        -4.68222172213256   -0.51887530942375  -22.72057742749173
H        -5.74908875860601   -0.39715589060882  -22.93722611539651
H        -4.08743262447692   -0.26493418065816  -23.59922843317559
C        -4.27610014365423    0.30842090529375  -21.51114321719247
H        -4.47641177640154    1.35978883240274  -21.69437967122814
H        -3.21642696009706    0.17230932157478  -21.30704360849015
H        -4.84075893585200   -0.00912080011101  -20.62710416847167
C        -3.92487964531881   -5.11640344530592  -19.38725059154270
H        -4.01974787160902   -5.19739031996756  -18.29953039447878
H        -2.91977038687513   -4.71434510520886  -19.57787305060644
C        -4.01179563307981   -6.50698899800969  -19.99389709214481
C        -2.99284323847341   -8.63501971203747  -19.96506976154140
H        -3.78423195098234   -9.23013968709903  -19.49565486772488
H        -3.16699510045992   -8.62271898450776  -21.04626777451966
C        -1.61984123410558   -9.18262040565820  -19.62575257231484
H        -1.53561300675794  -10.20359244494012  -19.98602291483562
H        -1.46800601700014   -9.16983946696941  -18.55014505104221
H        -0.84869562970124   -8.57560285491394  -20.09185753429150
N        -6.39459674995862   -2.66213272065859  -17.87925527428704
N        -4.90292370435538   -4.16189790026304  -19.90405253715612
O        -9.10791430687475   -2.73023294255963  -16.97337246993526
O        -9.61597480947832   -0.99835471362251  -18.30669651823600
O        -4.07323196904093   -3.50504168930127  -16.61643773652361
O        -4.50605198960249   -2.20355053615474  -14.84369686928730
O        -6.28599475358701   -2.09314542921323  -21.27157481097130
O        -4.41349414317506   -1.91044266596126  -22.48624763286804
O        -4.80352414671737   -6.85846063259381  -20.83398882714837
O        -3.07998195850086   -7.29403706629023  -19.46983876116973
Cl       -4.29464538169730   -0.34409688456028  -17.87197267315502
Cl       -2.48593784479129   -2.18457734151971  -19.86516309211662
Pd       -4.54372199950348   -2.30647039384487  -18.95291141575002

