71
CSD_code = YIDFEZ | q = 0 | S = 0 | Stoichiometry = C30H31F4IrN2O2S | MND = 8
Ir        8.33092632073962    3.24361752185319    2.90001926590265
S        11.24039652654099    4.19313455006810    1.74367192729894
F        11.24450510513015    6.73505284199435   -0.00835997475170
F        10.67481402962742    9.26089347060154    0.78269051459555
F        10.07130455397794    9.77542319051789    3.38474381741127
F        10.15287493456949    7.75051280283365    5.22015643113147
O        12.07351424469870    4.10511330280043    0.58045653432690
O        11.68516506793392    3.52633914495214    2.93906168681406
N         7.12229195996680    3.59559290215272    1.03499585694342
N         9.73098990742401    3.78219482143623    1.43655032706441
C         7.74239338344004    2.49121063557934    4.85729621917023
C         9.15190646959914    2.24721208722274    4.66850099368374
C         9.28766641191909    1.20233369233299    3.67400483361832
C         8.03047096303162    0.92705508974009    3.14891317601859
C         7.05832049865165    1.74512561760117    3.85068622254135
C         7.11917719524839    3.18894375799124    6.02888998220382
C        10.25161915245983    2.64282521418670    5.60008062046837
C        10.57830991470642    0.52998769391764    3.36684676398560
C         7.71356130457346   -0.11030681392558    2.11866630258564
C         5.57109933919603    1.57367707225339    3.76811683472327
C        11.05577234549624    5.94446638409073    2.21661837463206
C        10.77411530543197    6.21303750515392    3.54362124493954
C        10.43943732479142    7.49408578985317    3.93670810569179
C        10.39513607275566    8.53198568463000    3.00979032955502
C        10.69052734671893    8.26551135780779    1.67749402245531
C        11.00096747170391    6.96526288388750    1.28636046553958
C         7.85122130502038    4.37264041642690    0.01604086995046
C         9.32048603566846    3.87845857474071    0.05676709186561
C         7.76397185036402    5.86870882585417    0.20672054206317
C         8.28688504410941    6.67674211859875   -0.80049327445149
C         8.24122882881113    8.05389721605264   -0.70160834750279
C         7.66861610436506    8.65068898735398    0.41003832918782
C         7.13632961028714    7.85674134839116    1.40885515849394
C         7.17267063489567    6.47465172538053    1.30592306849582
C         9.48380693115590    2.55541911752265   -0.67700782159277
C        10.15388152256036    1.50360492131741   -0.07025548511149
C        10.32655852770957    0.29902213325731   -0.73037970814330
C         9.83286038864872    0.13080176834519   -2.01218682079700
C         9.18905052411118    1.18502408764888   -2.63768264904870
C         9.02187521614079    2.39007272267987   -1.97834778331129
H         7.04858505485981    2.63948330725494    0.69057198626305
H         6.17980401316011    3.96689370259557    1.13625397074157
H         7.01292041491503    2.48340926931048    6.85469292619754
H         7.73813059410255    4.01679578255344    6.36199677169149
H         6.13495901171870    3.57705341082138    5.78127038828362
H        11.14830622732474    2.87422787726451    5.02945657413060
H         9.97148430581709    3.51032198014706    6.19143625004326
H        10.47597622747002    1.81780521711337    6.27871229142356
H        10.48409311431209   -0.15124742441435    2.52484523830877
H        11.34299030472627    1.27659173044793    3.15376739974528
H        10.90724158666277   -0.03929003230376    4.23832676303060
H         6.70022460791969    0.00496461065821    1.73741769564372
H         8.40563116161628   -0.05234835485483    1.27811108029888
H         7.79332537051823   -1.10959317385792    2.55060133997993
H         5.05627759398277    2.47899025852291    4.08224082674563
H         5.24646939290514    1.32552448216423    2.75884743314164
H         5.25955214145180    0.76158697771522    4.42775255589447
H        10.81905363530665    5.40512612892212    4.25376119106858
H         7.43216415022288    4.15069802186837   -0.97672446660031
H         9.96656001610627    4.60252278034119   -0.45431318581000
H         8.73816821498656    6.22100283041030   -1.66984842731056
H         8.65981467023622    8.66278529189098   -1.48795552907683
H         7.64111705329522    9.72628338958972    0.49398700630458
H         6.68313491371093    8.31117123328598    2.27708927778592
H         6.75047089703161    5.87985645933744    2.09915997978958
H        10.56073717993588    1.65723142947481    0.91537831651701
H        10.85681002678386   -0.50861034498796   -0.24594110547140
H         9.96423696033727   -0.80839603124826   -2.52880770854626
H         8.82409736687688    1.07255976520358   -3.64824331201421
H         8.54700114981806    3.21029884141397   -2.49870615067642
H         8.30445696770858    4.71443841826062    3.28199857382623

