69
CSD_code = YIDFOJ | q = 0 | S = 0 | Stoichiometry = C30H29F4IrN2O2S | MND = 7
Ir        2.62785095950233   14.91356077560564   -0.34522591334058
S         5.80398941474441   14.71242455845650   -1.07141888171557
F         3.61495182263028   14.26158451263644   -3.13127335224488
F         3.57415392318266   12.49005174808033   -5.17817485580874
F         5.65648864309965   10.76562122632059   -5.53295950749422
F         7.80562341685312   10.87811448376297   -3.85282093379056
O         5.58165125062740   16.02161724008478   -1.61830651053288
O         7.06786581009926   14.45474796690277   -0.43904742993901
N         2.39084987685533   13.05750982848181    0.03796093573544
N         4.56493671116958   14.26038284440358   -0.19009684397535
C         1.11378312843954   15.99906603188372   -1.53563578132566
C         2.32641699056956   16.78212603934227   -1.60506184784542
C         2.67812781934032   17.17383136294994   -0.29794179033293
C         1.70206429060659   16.64229836561778    0.60785026608342
C         0.70970710379519   15.92778056590482   -0.16878379020472
C         0.33934198775884   15.52657172008338   -2.72220822443164
C         3.00572914173368   17.25089582387346   -2.84440591873951
C         3.80622884904423   18.08890691142465    0.04481000074593
C         1.61020361793546   16.95468374329391    2.06592075939432
C        -0.61269932661622   15.44393922316033    0.34723765396649
C         5.77245376740317   13.54106550677581   -2.48764188408949
C         4.67508785342249   13.46425394422566   -3.32081499951130
C         4.63499304552704   12.54422863551082   -4.36366866884089
C         5.69836683572867   11.66677329696379   -4.54695134372242
C         6.79073347505765   11.73382776560651   -3.68665611807512
C         6.82996530212719   12.67079541374435   -2.67010282534624
C         3.49047223365511   12.14519326440592    0.29084973141062
C         4.77428155408955   12.99153297324508    0.49416280279191
C         3.67931153823916   11.12795564834512   -0.82224010687718
C         4.64854339484462   10.13974443613810   -0.68367595059262
C         4.85421399891073    9.20931376724632   -1.68528517258574
C         4.07932577148503    9.23988199227682   -2.83368379383361
C         3.10420226103215   10.21106228175422   -2.97335938111791
C         2.91193892223105   11.15541349831942   -1.97799411978126
C         5.07972125262014   13.25810914186828    1.94847049394530
C         6.34256292676359   12.99552939159183    2.46008258135896
C         6.63587353509843   13.27791898709481    3.78340674337320
C         5.67020579651010   13.82767873079948    4.60831388629441
C         4.40960529247059   14.09908264076226    4.10221674342557
C         4.11645950163943   13.81599683925893    2.78087277012941
H         1.50674423460273   12.55828811576555    0.10409779463264
H        -0.18247367336608   16.36916033536117   -3.17842226360815
H         1.00483194511949   15.09694615603949   -3.46692471556737
H        -0.39686308881978   14.77834550023693   -2.44126019651553
H         4.07641575792039   17.07445377884207   -2.76216172924872
H         2.62606726802426   16.73871008924266   -3.72295929147257
H         2.84685229892475   18.32348408791818   -2.96554367169562
H         3.56462544675930   19.10793598298282   -0.26165586568246
H         4.00754926771842   18.08596163738278    1.11246963715365
H         4.70440848393565   17.77478309239273   -0.48286670485237
H         0.98079748543809   16.23576674407093    2.58411349810900
H         2.59583266044652   16.94938325848951    2.52621099301841
H         1.17752978087365   17.94761224284835    2.20044329700603
H        -1.31785256120773   16.27543675431522    0.38837406956120
H        -1.02844089095231   14.67679486365676   -0.30050199892057
H        -0.51678772325448   15.03073398129653    1.34829744436895
H         7.67929240453134   12.74198583112037   -2.00910918245194
H         3.29837677369142   11.58141318958248    1.22075668029119
H         5.63832716203950   12.49036257715039    0.04154774612035
H         5.24008151841212   10.10030079015552    0.21985331668965
H         5.61511739740946    8.45217100541278   -1.56743063910262
H         4.23471187808383    8.50945857861712   -3.61329234124475
H         2.49168468973177   10.23777025559274   -3.86272854922654
H         2.16204388576468   11.92365814353934   -2.09925585166428
H         7.10328085522887   12.58581648607137    1.81293650145695
H         7.62292952035793   13.07150185070488    4.17036498792510
H         5.89980103835828   14.04926745931434    5.64039566786818
H         3.65361934513559   14.53314651246517    4.74117526254777
H         3.13711314880820   14.03387757120042    2.37775668188731

