54
CSD_code = YIDGOK | q = 0 | S = 0 | Stoichiometry = C21H25AuF3NO3 | MND = 4
Au        9.00421203455789    6.51051545668997    6.42099728470666
F        13.06726141101056    8.99991766147119    5.93582937298009
F        12.08771833770907    9.96877357631963    7.59660252789848
F        11.77415303165219   10.68625939280239    5.59044932289618
O        11.68554399738596    3.99793304681319    4.36504853886228
O        10.89321129429612    7.50131749873259    6.77473906762819
O         9.70159521843227    8.96276679438255    5.62001755281464
N         8.04181496115052    7.67772143635985    7.92220599895986
C         6.21961668727438    6.50455022268824    6.98405098481576
C         5.34952762277860    4.47211607677322    5.27530739510577
C         6.69711086328684    4.82357297449705    5.34873512989028
H         7.38444249309080    4.28558022869814    4.71443663465061
C         7.15647155067271    5.81609199895372    6.18834135511707
C         9.85109566146849    5.33741279413827    4.98277143209136
H         9.30589211894030    4.40215112245046    4.86366136806503
C         4.87038150971639    6.15503866447396    6.91751038733454
H         4.14607811327287    6.66631456704025    7.53244986399155
C        13.07213849036073    3.90983253330861    4.17146553624503
H        13.21939261347755    3.24768759838301    3.31926907629956
H        13.58711831538820    3.48929238705478    5.04269800484846
H        13.50675532066106    4.89218173900720    3.94874507287712
C         6.70694223704299    7.55635472620436    7.86539373405345
C         4.44150159972445    5.15040408099843    6.07558316134744
H         3.39316490844044    4.89272900372369    6.03857536255597
C        11.28102844746653    4.93199050446295    5.36202596394199
H        11.93536587711387    5.81460381988435    5.31339949910596
C        10.71098905339224    8.60683992858589    6.20139693127393
C         5.90032855531678    8.40710483512156    8.62428256058953
H         4.82693926554864    8.33237922475542    8.56892033433927
C        11.39954281846678    4.32474747515479    6.76834506358122
H        12.43782609443931    4.01787161014474    6.91657117127446
H        11.18219268335793    5.10132878962148    7.50191643152412
C        11.91978541635346    9.57697558761779    6.31854888331105
C         8.60844043616816    8.57867170382476    8.70908226178926
H         9.68852583728531    8.59886905316663    8.71067083034156
C         4.90874533457100    3.39617048820965    4.33527120968459
H         4.92063756803252    3.77170861217211    3.31201164977036
H         3.89998018839048    3.06395727349323    4.56630705131831
H         5.58364430778964    2.54421015788671    4.38266289415797
C         6.48611388838004    9.35987388179492    9.43466218952529
H         5.87199978526033   10.02994107875113   10.01761735477895
C         7.87067240622094    9.44519803211582    9.49232508054630
H         8.36620813884111   10.16791020315614   10.11916301323959
C        10.49407289128527    3.11475352759034    6.98444233360665
H        10.63679857046982    2.41902633018567    6.15515646452293
H         9.44899470916768    3.43257769156925    6.98661715671861
C         9.83597023195101    6.07561598967120    3.65147004100554
H         8.81614974584234    6.25555177621905    3.31901153348551
H        10.34702809124321    5.47018082842222    2.90269267758235
H        10.34708322125264    7.03278398196119    3.72505204095886
C        10.80496290421960    2.41550459468476    8.30219211527737
H        10.14351009610107    1.56480640549450    8.45019972704861
H        10.67347506867665    3.10241335932780    9.13572635120056
H        11.83194797505159    2.05671767323666    8.31457501855832

