54
CSD_code = YIDGAW | q = 0 | S = 0 | Stoichiometry = C21H25AuF3NO3 | MND = 4
Au        3.60892124616138    0.05465493764109    7.57468871445776
F         6.38498906502932   -1.21721493127481    3.50797335053763
F         6.56802844356058   -2.72187188438000    5.03661318482356
F         4.80240298355215   -2.64818708083177    3.79789176328940
O         4.46378159039104   -1.55958847210901    6.42492876194638
O         7.30121711491673   -0.13360915417669    9.60508953820887
O         4.99353052573780    0.25343136985538    5.27425508377634
N         2.11186666143629    0.43223670938331    6.09954479035871
C         2.74527575822741    1.62938649936040    8.42480743050220
C         1.56510973865405    1.64542767819757    6.26940221503535
C         1.82139948108465    2.25710419627072    7.56612500975107
C         0.80178038587345    2.21347282220795    5.24784718419512
H         0.38413466357595    3.19986019216107    5.36500126883629
C         2.94797643340911    2.17471883926275    9.67445678217866
H         3.63912798980869    1.71507661254930   10.36425341796816
C         2.28170028217791    3.32113551760838   10.10700823702658
C         1.15346279002028    0.24380225592486    3.93989181800561
H         1.01099660261209   -0.34077900009222    3.04609222404202
C         5.00261715047529   -0.95043759872207    5.46631311080038
C         6.42317690387469    0.04500427004792    8.49681734900809
H         6.69914738746296   -0.67134564701217    7.70837352780830
C         1.90897283134942   -0.25196167610552    4.98486448789290
H         2.36549500778847   -1.22996770839294    4.93555823055113
C         0.60459300361498    1.51199554262521    4.07436408635957
H         0.02762068797303    1.94609799774072    3.27149004805120
C         4.92678518432165   -1.73466140816828    9.46826771044033
H         5.74802080282723   -1.91266900397099   10.16903826040666
H         5.06700440807095   -2.39614513396391    8.61198960360379
C         1.15226561364677    3.40466596208621    7.99153240667480
H         0.43514322955180    3.88567825443188    7.34443997447826
C         5.70527989910452   -1.88570381974467    4.44304145072523
C         5.01873269642805   -0.28141195680516    9.01752579089796
H         4.86596842746081    0.35143004823184    9.89130677263976
C         6.52706948324119    1.46939116720708    7.94863716469085
H         6.10639897923170    2.17438839329527    8.66185703095666
H         5.99842330784693    1.55304336564140    7.00384362850813
H         7.57019066100874    1.72767643016872    7.77978916684728
C         8.61855120599261   -0.46908216992017    9.25854988989017
H         8.65047787339978   -1.38713272416583    8.65842546283397
H         9.14806946005825   -0.63108894573161   10.19621603523630
H         9.11748623790241    0.33124156823287    8.69986393122782
C         1.38303686978784    3.93238068458096    9.24500983754527
H         0.85617409148088    4.82195581854332    9.55777704074949
C         3.60637011994455   -2.06569395997895   10.15725370343168
H         3.46151258344781   -1.39425868522421   11.00710740662102
H         2.78179199129033   -1.89586050257072    9.45851738918669
C         2.55353851123896    3.86991700948289   11.47128795134664
H         2.48468233797198    3.08303933775567   12.22010814516836
H         1.85066714058308    4.65975008074658   11.72282141912230
H         3.56286452601310    4.27882748870200   11.51374270450509
C         3.57526209373223   -3.51124844891924   10.63797812760543
H         3.69643101873085   -4.19109165042975    9.79806368574202
H         2.62993965522376   -3.73384981035034   11.12772353968485
H         4.38083686169156   -3.69462967690548   11.34553315383018

