96
CSD_code = YIDGOI | q = 0 | S = 0 | Stoichiometry = C48H38AuClNO4P3 | MND = 2
Au        4.91954933064303    0.12839415090495    9.32791288580115
Cl        4.67959076230514   -1.61424890891586   10.76643440432845
P         5.08116724273770    1.96736680772245    8.05408561737066
P         0.42364158521257    1.67949375847242   10.43192119242792
P        -2.31148904150257    1.94467113698378   10.30404731257761
N        -0.97996326735447    1.44998391660591   11.14132184085195
O         3.26827440454999    2.22887890568832   10.23616539424968
O        -2.13593188521936    2.61962002487425    9.00755572648624
O        -3.11452745113243    2.79013353266105   11.40097624565779
O        -3.29261110890163    0.65787785828967   10.20004077532731
C         3.91632498488200    2.12270780327878    6.67661964251405
C         3.59262281896907    3.36174915476444    6.12954531369137
H         4.01272263125984    4.26273196528407    6.55529324414841
C         2.73174810121712    3.42685826101690    5.05018562376242
H         2.47275664708662    4.38558546625423    4.62520544038226
C         2.20523126702027    2.26415592965021    4.50799708333469
H         1.53605268226896    2.32163028916163    3.66280694983179
C         2.53461847208867    1.03159022971603    5.04675530064377
H         2.13047942699379    0.12703088937301    4.61959111462983
C         3.38329179719662    0.95820180211020    6.13679091224095
H         3.63612594545313    0.00370470283915    6.58016545268407
C         6.69848054887189    2.24103855867412    7.28015039311492
C         6.89536557994357    2.29633031716461    5.90586971559778
H         6.05112974841902    2.22872770675222    5.23412393898190
C         8.17736609238883    2.44037002282608    5.40312623807804
H         8.33010490686496    2.48649339403858    4.33500789099689
C         9.26013895988645    2.52124537477984    6.26220736504013
H        10.25731145032212    2.63246001395514    5.86374284320978
C         9.06770173291954    2.45007429597096    7.63415220867632
H         9.91335090834835    2.50308260570830    8.30340117147956
C         7.79276963715004    2.30145812674828    8.14216871778121
H         7.62710090020247    2.23113900794005    9.21033999839083
C         4.84906168857477    3.48076609656279    9.02107098250008
C         5.53375588493965    4.66988946570193    8.79087269534709
H         6.23059820888428    4.73149537288416    7.96622289792305
C         5.33458453334291    5.75721573307224    9.62012884890850
H         5.86309954427931    6.67946316753766    9.43367418605395
C         4.46491235733753    5.65935848898103   10.69577631308319
H         4.31339471757620    6.50700161921390   11.34619897471353
C         3.78551365219708    4.48235261888018   10.94575978392752
H         3.10365675271162    4.40169777611875   11.77946236458431
C         3.96448299354983    3.39345050414704   10.10173384534002
C         2.95054765426062    1.79969371659509   11.51359873955513
C         3.90393308398131    1.66419884742964   12.50968894207593
H         4.92630672647120    1.95860312151025   12.32071026099532
C         3.53053989879154    1.12542122085943   13.72900581251470
H         4.27484816343468    0.99992272079362   14.50029517891255
C         2.21990895620146    0.73541142453584   13.95798634752305
H         1.94480469660697    0.30936777839762   14.91060839835089
C         1.26769870988878    0.88779001981272   12.96648475773359
H         0.23430180275062    0.61110295751926   13.11174612978398
C         1.63372342905117    1.42022515994486   11.73977761418061
C         0.63278272781470    3.38468142542749    9.84548234781483
C         0.16511029349811    4.36541517174573   10.71229843213861
H        -0.29038748226330    4.06225850839465   11.64684337372927
C         0.26581745651517    5.69952118013688   10.36552480846243
H        -0.10099452351295    6.46314616637245   11.03632353398937
C         0.83059102422991    6.05336206642075    9.15004909146023
H         0.90390696207006    7.09490431205227    8.87299049028196
C         1.29072223566107    5.07443312572365    8.28554330407650
H         1.71845403782515    5.35319376366890    7.33368475224354
C         1.19670814984806    3.73730731552902    8.62927935856115
H         1.55843485424070    2.97019670079797    7.95983526563134
C         0.77523449395040    0.52486066075648    9.07981708266237
C         1.55813082040666   -0.59736963002802    9.32064918168129
H         2.04704861823001   -0.72814253208123   10.27562572835847
C         1.70596381712263   -1.55522949421753    8.33248397804136
H         2.32465826134315   -2.41934172544620    8.52410445891642
C         1.05658718895449   -1.40464338939628    7.11916030103555
H         1.16223143854768   -2.16078663708874    6.35434229928945
C         0.25694904431401   -0.29528071623488    6.88894729803573
H        -0.26803516676693   -0.18900836153247    5.95109421399886
C         0.11378088943758    0.67267694657590    7.86458418514967
H        -0.52666791132219    1.52847122698012    7.70675149546755
C        -2.89536524850494   -0.34953873715359    9.35087267200286
C        -3.38152469949362   -0.38649932972291    8.05232602049760
H        -4.03642402424654    0.40320191939972    7.71780354653318
C        -3.01540858878045   -1.42514279967189    7.21469042585213
H        -3.39848730515883   -1.45629776269213    6.20505377799470
C        -2.16127455310792   -2.41796854582465    7.66403020008432
H        -1.87872356707836   -3.22744163458440    7.00743576850348
C        -1.66705142165307   -2.36918394238488    8.95626588892607
H        -0.99296099527032   -3.13530252146948    9.30916270274269
C        -2.02890056873411   -1.33581451588397    9.80154287687048
H        -1.65007767401457   -1.27953999815477   10.81033124542096
C        -4.11220779701128    3.63646058076489   10.96445035178909
C        -5.43878301256066    3.28621159427701   11.16864820697236
H        -5.66344420950818    2.33432169352248   11.62499135893702
C        -6.44408419846455    4.15397724951355   10.77994422798067
H        -7.47670662715921    3.88048784893964   10.93922474125743
C        -6.12921800874073    5.36235436664480   10.18101759983510
H        -6.91581534948801    6.03561520735842    9.87381636653700
C        -4.80348747942644    5.70146445820726    9.96949874815335
H        -4.55398450154646    6.63889868222551    9.49430510898668
C        -3.79100583369351    4.84240402185864   10.35994438001749
H        -2.75256083245113    5.08234116865875   10.19001777454239

