54
CSD_code = YIDHAX | q = 0 | S = 0 | Stoichiometry = C21H25AuF3NO3 | MND = 4
Au        1.73201585812356   23.52886827378854    3.74216990755721
O         2.62697346898207   23.31309691268273    5.69173846550810
F         3.86260193555601   24.82909491015351    7.81563582556419
N         3.00007749970784   25.12467234999540    3.18941859880936
F         1.86978249058406   25.29498569846986    8.48599995197627
O         1.30156918132787   25.07186339213800    5.86011067608605
F         2.53717040001813   23.24867402060724    8.44889584470965
C         1.05054265768791   23.81197149980630    1.90718180709246
C         0.42840687042039   22.08192394036398    4.28395507510284
H         0.03561146677851   22.40804751879219    5.24757832783010
H        -0.42377813092172   21.96626412633156    3.61924677256821
C         2.57790534199346   25.72186118319588    2.06299313837589
C         1.58671656162024   24.96868560126830    1.30937430686690
C         0.17018882494575   23.04180314651673    1.17797709806730
H        -0.23670818206145   22.13675660166334    1.60011809666361
C         2.58212811583317   24.41058961074164    7.78457980872383
O         0.21656020119602   19.81313736144337    5.10087777991169
C        -0.21692565897013   23.38430774150434   -0.11773798337610
C         1.50038508586142   20.09620052414526    3.12723485803427
H         2.03763710862938   20.83805283799641    2.53256630125616
H         0.58291553070691   19.82522678317229    2.60181135970248
C         2.09785325137530   24.26925666869137    6.31541355536529
C         2.36168721234475   18.84979903898576    3.31054753804333
H         3.28731487113488   19.12468364810124    3.82173866879010
H         1.82348768167890   18.14416513364153    3.94524551942964
C         1.10626884466899   20.72201930593699    4.46722177041307
H         2.00165886381558   20.84570374933233    5.09414554441474
C         3.93447325853043   25.68357682312576    3.94339238884464
H         4.23033711515541   25.13140757831989    4.82348902924561
C         3.10723180922676   26.95865472536473    1.69121706614111
H         2.75419120829349   27.45446313898593    0.80203899409011
C         4.50862203317577   26.89960323817525    3.62724751542027
H         5.26634874403172   27.32469966460829    4.26440107198759
C         4.07116914790106   27.55270757986681    2.48251598092163
H         4.47997606142814   28.51475631115894    2.21208977860858
C        -1.17994942409185   22.51437338036746   -0.85993401656773
H        -0.87901321103177   21.47066645542131   -0.79475905296296
H        -1.24087799040545   22.80115188213165   -1.90636871225984
H        -2.17328473686858   22.60006830236511   -0.42006725038283
C         0.30159388734188   24.54009055654812   -0.68434587142006
H         0.01131923041253   24.82580447900334   -1.68473014232134
C         1.19707521576018   25.32063726539266    0.01718145988181
H         1.60590450422529   26.20242074010945   -0.45163644430312
C         2.69766785293741   18.18536487573274    1.97816206304674
H         3.22009945800189   18.90181200594035    1.33912031975096
H         1.77127379838260   17.90474588076692    1.47199562225077
C         3.56498864165522   16.94685618547509    2.16733356813891
H         3.79158394472961   16.48537428476068    1.20875213593739
H         3.05240105524151   16.21561128742405    2.78822483384903
H         4.50274350242412   17.20879076229875    2.65243825541703
C         0.17539709491804   19.90318912857764    6.50120908228572
H         1.17537433458815   19.78582617531519    6.93638498215462
H        -0.46659757596786   19.09131457955556    6.83938075927762
H        -0.24289631306384   20.85582113370258    6.84562796947893

