42
CSD_code = YIDHIF | q = 0 | S = 0 | Stoichiometry = C17H17AuF3NO3 | MND = 4
Au        8.23294708613299   16.11712776847886    2.60854461733967
C         6.88623875261206   15.32333622582017    1.32049702786974
H         7.29207164228209   15.31565234693610    0.31068789196058
H         6.66712482347028   14.29430851406280    1.60179562987403
F         4.91433492794247   19.49956228468745    3.29680646603815
N         9.77154386120373   16.85713978430658    3.85325210337589
C         9.66088762554755   17.80192952601360    4.77448570499492
H         8.65563834655213   18.08775626544303    5.04721730255400
C        10.76241487288451   18.39074967222462    5.36508131594993
H        10.63358490686470   19.15838725167196    6.11000193953246
C        12.02363727618082   17.97228702342888    4.96272613665397
H        12.90975220207574   18.42028075475262    5.38685286240763
C        12.13380399299002   16.97343218756644    4.01490930064026
H        13.10558993412261   16.63808419455180    3.69216882786593
C        10.97895987542483   16.41429854064474    3.46524109328262
F         6.45709762323038   20.85443981871498    2.65160415884566
F         6.49966470070644   20.05644971061376    4.65076031519123
O         7.96407879173835   18.69722047420762    2.07949682815877
C         9.70144762825112   14.97215399500585    1.95003368063353
C        10.95048540271141   15.33840697281547    2.48570864112948
C        12.09495895036357   14.64299847915797    2.09434452143339
H        13.05817332975754   14.91041999851714    2.50047458846008
C        12.01179096490265   13.60054034873321    1.19491054696247
H        12.90791481173154   13.07336245597879    0.90221023449366
C        10.78436589174000   13.21996357875112    0.67016148373125
C         9.64323474143193   13.92050980303849    1.06134469405662
H         8.69571337576611   13.61318970561352    0.64804980356072
C         7.08328380579647   18.53951355271150    2.90703853478574
O         4.72035111551190   15.40729968492712    0.37132744871051
O         6.79466365238320   17.46135825798539    3.48864302401475
C         5.57048975177097   16.08279725629412    1.27595894561787
H         5.10283100508396   16.12322244933307    2.26969991987994
H         5.73004965661885   17.11661605051696    0.93371677608203
C        10.67046075665242   12.09738433810590   -0.31026946978813
H        10.51708247096369   12.49728878651258   -1.31253605140692
H         9.81749480809558   11.46560093019600   -0.07287565374112
H        11.57214542020829   11.49072921981988   -0.31809702141047
C         3.46898445036557   16.02911292524793    0.23996953086090
H         2.89644728296773   15.42992098087108   -0.46553112252630
H         3.57073276241249   17.05177903988361   -0.14432995681259
H         2.94179987745636   16.06975339938813    1.20127835648725
C         6.22762684508512   19.75123544646762    3.36713902225203

