73
CSD_code = YIDJUR | q = 0 | S = 0 | Stoichiometry = C28H34N4O6Zn | MND = 6
Zn        5.67267184498208    2.80325599950054   20.23641187711466
N         7.36099246668839    1.58054652289310   20.87977195610960
H         7.66584666484040    0.81671683296619   20.28295184525894
H         8.13980953715190    2.22248347277191   20.97505410483467
N         4.74471301098333    1.70530516466113   21.69705340583186
N         5.50648744291982    1.59745402718926   18.42665843839817
H         6.15966412309916    0.83153803839462   18.28773745532552
H         4.57341517601997    1.20181771319664   18.45051651595947
N         6.45627492520396    4.13030403007550   18.88559808110181
O         2.14472587151861    7.13372980593103   19.13519799480017
O         3.27449631953370    5.41734241913172   18.29737270596249
H         3.60207577095329    4.54753485362707   18.67416279950635
O         3.86624880055257    3.48309005974705   19.80819834507804
O         4.55833384338649    5.87805494937851   24.89599376322613
O         5.61318455971579    4.11365195682492   24.06007627295041
H         5.97520786064269    3.88328678117153   23.15292238154931
O         6.23738565659897    4.10227120633799   21.61502112392900
C         3.08869208542547    3.42874210263505   22.05044835660391
C         3.19623386870521    4.04418318347660   20.76922907831855
C         2.52490318228706    5.28432196267506   20.57074154305246
C         1.79369305233810    5.85551195773016   21.59896675408016
H         1.32171888634423    6.80766155429563   21.40597651077377
C         1.66655838488880    5.23017533980844   22.83070883627818
H         1.09051952847969    5.68896832609150   23.61797784413498
C         2.30490652017077    4.03077823011605   23.04500449227543
H         2.23610471065919    3.55034566259231   24.01075042333709
C         2.62130732576779    6.03497892034841   19.28863106525926
C         3.82390796235645    2.25372140732523   22.40306918704290
H         3.56080355377715    1.84976796000277   23.38101096816745
C         5.52787946951612    0.59095975977017   22.18793673372199
H         5.42573138650675   -0.20864509964357   21.43949454907602
C         5.16031699690094    0.03581015411136   23.56650604493377
H         5.26616348991607    0.82401795987352   24.31426408415866
H         4.12381431947435   -0.30741603238805   23.56085202844953
C         6.07733182734853   -1.12543148562804   23.93926625142833
H         5.96473711326018   -1.93338556959497   23.21213204651727
H         5.79005815109051   -1.51454508623987   24.91705691385397
C         7.52916757999987   -0.66350751210006   23.97126345879924
H         7.64703090204885    0.11078653067243   24.73107548093669
H         8.18421164264905   -1.49604615831016   24.23326536871073
C         7.92550082284825   -0.10208108204876   22.61032776768707
H         7.86371153422206   -0.89818773687518   21.86136792693396
H         8.95803968326193    0.25464848211468   22.64004569486372
C         7.00208969513597    1.04587013855717   22.19817940949497
H         7.08110309729847    1.86439115163531   22.91859908642303
C         5.84872453061882    6.01724031833337   20.26669113281170
C         5.79388165600274    5.31876101266286   21.50788782167975
C         5.25726530780975    6.00689205790673   22.63319247361689
C         4.81248957729226    7.31238730230769   22.50718634122275
H         4.39310346490923    7.78310285629044   23.38419282318327
C         4.90339681991713    7.99452751800024   21.30271576469131
H         4.55452569829941    9.01152104539115   21.22467035332992
C         5.41963869368043    7.35054867663011   20.20240190205607
H         5.46735605865702    7.86400878809929   19.25252020964114
C         5.10415674074899    5.34689426958119   23.95911667632064
C         6.24559328302493    5.38606302031558   19.04608244761036
H         6.33075886306504    6.07442583590699   18.20486790091698
C         6.73086825916286    3.55748458330589   17.58454944529084
H         7.67829724706358    3.00777842950603   17.68552847468979
C         6.83861742785124    4.52840496059170   16.40587262414899
H         7.64167622390346    5.24460142708759   16.59138578924050
H         5.89883851084481    5.07323134828069   16.29810299493257
C         7.12235332411939    3.77196673279586   15.11135144762475
H         7.20733694880733    4.48253685595736   14.28800588620063
H         8.07410544471506    3.24141545614587   15.19413136405017
C         6.00446687843814    2.77718494419586   14.82347677092742
H         6.21200806841116    2.23322522814528   13.90045174194688
H         5.06412919783180    3.31545016678553   14.69398884781383
C         5.87094988041009    1.79622823421698   15.98292001179706
H         6.79480193638210    1.21538381474724   16.07043535851286
H         5.05102796994433    1.10003663067979   15.78984650690617
C         5.61470078575555    2.53112670741148   17.29990724924171
H         4.67466055485861    3.08609292390652   17.23997266735466

