69
CSD_code = YIDKEE | q = 0 | S = 0 | Stoichiometry = C30H30F3IrN2O2S | MND = 8
Ir        4.66235240620311    3.47402132115006   21.75605834314169
S         5.55001416822906    3.13289566469258   18.88908415586558
F         7.29243396470009   -1.69671910368583   19.57410557889927
F         6.86864120066335   -1.49674166560535   22.26837240188174
F         5.81887270454523    0.76901167396897   23.31773284196945
O         4.18569333722393    3.10590562721316   18.42917767661401
O         6.57103264580721    3.31477471577638   17.89493155750344
N         6.56280799007232    4.19188638968803   22.68666949289394
H         6.43661294645961    4.61034848296062   23.60610712173176
H         7.21916860647013    3.41975718775891   22.80044786192350
N         5.67182349116820    4.20822499198690   20.10803516377046
C         3.20602162245918    3.78939782331768   23.42564271438839
C         2.83811826659002    2.60879626341877   22.72883391529973
C         2.56729016541874    2.98478903980180   21.36464859082713
C         2.64276178343863    4.42775207432799   21.27996759315512
C         3.07629073861681    4.91893856920088   22.52257087060787
C         3.44788384144991    3.87386449224179   24.90082090437503
H         4.02294522691884    3.01848872769987   25.24951175816208
H         2.49223559054595    3.87228149711761   25.42732083802141
H         3.97627338981080    4.78588645570367   25.16928025303667
C         2.60455725558360    1.26525708314161   23.34247945743990
H         1.59206038268216    1.21780261346835   23.74667447956291
H         3.30446814868610    1.07554362593761   24.15167937893330
H         2.71443353028073    0.47646101978717   22.60357957255490
C         1.95870030086576    2.12251863259105   20.31006243794101
H         0.89489289379989    2.34551555864261   20.21942620209545
H         2.07498649664622    1.06862341795388   20.54682348753822
H         2.43577393191375    2.32226170760943   19.35246877964525
C         2.29884127716655    5.19263987246455   20.05169781517943
H         2.58316386656718    6.23776028101321   20.13777672456244
H         1.22537099245951    5.13582637813077   19.86777014642587
H         2.81223790743253    4.74987225583828   19.19877476731671
C         3.18879215685657    6.35814472375209   22.92024925227488
H         2.23526383329485    6.71606918012872   23.31296451988470
H         3.45568309938693    6.97492829604644   22.06534088097428
H         3.94223253996810    6.50044854338936   23.69309076819379
C         5.88155232809863    1.61435587734488   19.81377358048740
C         6.44396862516903    0.48957431440554   19.25123814962483
H         6.63931481336076    0.44111010927024   18.19259717969081
C         6.75671166593356   -0.57299902669149   20.08261342724165
C         6.53662641528784   -0.48008476574640   21.45293916272633
C         5.98138458335906    0.68423694175279   21.97225426286336
C         5.62419720091945    1.76511563973327   21.17442412790527
C         7.13922985172806    5.18463406621013   21.76163020060560
H         6.49733051983621    6.07036173743243   21.78912558525256
C         7.04299993300783    4.59831852251797   20.33315411151396
H         7.71911272749184    3.72748713066930   20.26724952058671
C         8.55962028225877    5.56594497928638   22.08359172185931
C         8.94494813168714    6.89973585007483   22.03329029817045
H         8.21118670592179    7.65486146982608   21.79296236475223
C        10.25809899295180    7.26322434706983   22.27135012550479
H        10.54379428269644    8.30307117539572   22.22371754644969
C        11.20324105461296    6.29618062601514   22.56706265585725
H        12.22850477270978    6.57765841834934   22.75308463906700
C        10.82987711181481    4.96411631598560   22.61542129613124
H        11.56378273786827    4.20373105373684   22.83653468939233
C         9.51767716256749    4.60042517416000   22.37055064428472
H         9.25110428800477    3.55222549110940   22.38864965027884
C         7.48092339388530    5.63498391407609   19.32713272184372
C         8.79986635532490    5.69811708253094   18.90378813116015
H         9.51453438858598    4.97377521437779   19.26608205174949
C         9.19922399552178    6.67861922335312   18.01342284613302
H        10.22763705980608    6.71876399262037   17.68619527416502
C         8.28341907411783    7.60023240336759   17.53659626361750
H         8.59529019435264    8.36141848719055   16.83641278334168
C         6.96431388555224    7.53601562900950   17.95171261711607
H         6.24446842469052    8.24740133487326   17.57413891263506
C         6.56605915640402    6.56062103421920   18.84733382635709
H         5.53826718406987    6.48653281786922   19.16709132702753

