58
CSD_code = YIDLED | q = 0 | S = 0 | Stoichiometry = C32H22AuN2P | MND = 2
Au        6.22242575594180    1.33393445390657    4.85822857100231
P         7.25826786684119    0.58505912900117    2.99564072738348
N         2.01936644385679    4.16794095260434   12.00038419275229
N         0.70131769710696    2.68794541850521   10.12981989729206
C         5.32565851320690    1.97225029803386    6.46724618254432
C         4.76210402667504    2.37075297624211    7.46248854923903
C         0.06363705392690    1.98037877616532    9.23453098167971
H        -0.98172179888202    1.78995556293678    9.44547799836610
C         0.65612191920599    1.48365271926546    8.06793895809374
H         0.07752031193879    0.90442339455410    7.36383318544400
C         1.98457681723557    1.75412479095720    7.84862855309874
H         2.49985313666143    1.39898197594598    6.96626791179252
C         2.69651550601729    2.51190462719782    8.79096029583011
C         1.99659562037557    2.96296686109714    9.93439997495379
C         4.08817581850821    2.83054484531434    8.61684198426421
C         4.73398309134261    3.57409880711028    9.56523818965071
H         5.78067336405869    3.81702359114582    9.43832237679036
C         4.06279945270120    4.04215052791684   10.72115898336269
C         2.69086004404208    3.74590892681743   10.92450449451571
C         4.70922451513130    4.81112188544865   11.70584062977824
H         5.75603082570697    5.05696956920258   11.58345458577237
C         4.00133027137895    5.23521560968530   12.80176306387837
H         4.46613123781548    5.82783362917805   13.57563451449299
C         2.64931219408895    4.88067010559362   12.89758916643996
H         2.05689394006859    5.19642099269724   13.74742429202366
C         6.76594128715513    1.41568837532174    1.45878009473488
C         6.74220968444574    2.80884532496000    1.49937296079154
H         7.02734651722422    3.31660934574526    2.41311821799715
C         6.35926784139444    3.52797712499471    0.38417589852557
H         6.34737938079012    4.60734390354322    0.41538503190084
C         5.98268853002308    2.85998013333092   -0.77125697371345
H         5.67831895219338    3.42065661731918   -1.64238383722115
C         5.98846738477967    1.47545895073061   -0.80790883084240
H         5.68759578309158    0.95728456938170   -1.70661165127581
C         6.37681828575722    0.74809570502301    0.30392566892093
H         6.37760926587590   -0.33270111601886    0.27450091977093
C         9.06638431285825    0.75736901354107    3.00778757371038
C         9.71287597000896    0.27678509191289    4.14466095910117
H         9.12579783765540   -0.16741182043778    4.93961864563286
C        11.08670334777578    0.37014553407118    4.25175184613551
H        11.58675982826636   -0.00600955402725    5.13202008672402
C        11.81996926413389    0.95532671745904    3.23070099464959
H        12.89359933060480    1.03354673202730    3.31506408644300
C        11.17792607775592    1.44547620696381    2.10547041309462
H        11.75042557013593    1.90465448844055    1.31280797374283
C         9.80214545448364    1.34986291367118    1.98849698807183
H         9.30233820557880    1.73240409068699    1.10901603902659
C         7.04078352792399   -1.17884662772845    2.62252626302552
C         5.87055668571077   -1.78670249495493    3.06644983672591
H         5.14718245123060   -1.20230724613812    3.62180975065934
C         5.64305558778275   -3.12515674226494    2.80362042853542
H         4.73428805223500   -3.59550534025693    3.14863898899315
C         6.58583855846146   -3.86088907787278    2.10397074148107
H         6.41147124003313   -4.90720134182645    1.90202296476641
C         7.75540794692175   -3.25892441949542    1.66594658024525
H         8.48947044557862   -3.83574787830987    1.12257204941785
C         7.98789171698027   -1.92034209303314    1.92227105833067
H         8.90023205019038   -1.44829551329033    1.58325997142688

