23
CSD_code = YIDLOP | q = 1 | S = 0 | Stoichiometry = C10H8AuCl2N2(1+) | MND = 4
Au        3.88073533527824   -0.33384168316115   12.14923090996932
Cl        2.96352256399656   -1.19322502582279   13.99106341364529
Cl        5.56590150416431   -1.77482376188883   12.38476428378500
N         2.38903789060722    1.05614310445158   11.80313944016071
N         4.60821872457541    0.55960175088389   10.43192477429868
C         1.31152472675842    1.22027058364733   12.55729487461979
H         1.22824183079765    0.56407559576870   13.41358425962734
C         0.35237994107394    2.17606893276916   12.26346669297130
H        -0.51312630479961    2.28149613506857   12.89721203781534
C         0.53844414961488    2.97802502574127   11.14807657949944
H        -0.18553373619652    3.73463250574889   10.88651189200564
C         1.67027977406177    2.79840753980416   10.36607515745349
H         1.82515784233155    3.41686062182043    9.49768037754034
C         2.59713889303089    1.81899190286815   10.71172970221321
C         3.82153590062784    1.54405604614791    9.95409455343654
C         4.19509514099951    2.22925967823438    8.80138901474234
H         3.57555715122584    3.01804578199372    8.40820499231462
C         5.37532603380736    1.89155894929294    8.15493035565379
H         5.67229073207726    2.41794429478768    7.26064959720530
C         6.16247662296410    0.87394424906264    8.67137071653509
H         7.08644541196103    0.57988665380777    8.20049160057346
C         5.73731535281179    0.22892528823753    9.82159121305159
H         6.30393451822821   -0.57320416926657   10.27582356088349

