27
CSD_code = YIDPAD | q = 0 | S = 0 | Stoichiometry = C8H10Cl2N6Zn | MND = 4
Zn       -0.26876533147720    2.90730295961090    2.18501784154608
C         0.56007763653710    4.82093572323978   -0.09349586247933
C         2.03137658968416    4.69388411192904    1.66222375473109
H         2.28272118064233    4.23491847483827    2.60841451222572
C         2.84269921986639    5.64028712029859    1.07185948467244
H         3.75868944833478    5.96326610983371    1.53389108796734
C         2.40899620195107    6.14762912779388   -0.15088237486728
H         2.97295846484202    6.89534915518977   -0.69308061256070
Cl       -1.67823191460787    1.94472887060456    0.75296832653732
N        -0.57713615517597    4.45213859311876   -0.67607552435873
H        -1.08519930121605    3.63087573915098   -0.34041322239300
H        -0.75216396731374    4.80586704923692   -1.60119828954803
N         0.89582986647326    4.27948832402706    1.10078060284643
N         1.29734623467204    5.74886492322900   -0.72155468440085
C        -1.09756250535272    4.82094067995155    4.46353619720186
C        -2.56891794217242    4.69385809268591    2.70786607051262
H        -2.82028401286023    4.23489087991620    1.76168240021389
C        -3.38022047797810    5.64027738975085    3.29823813555518
H        -4.29622671662034    5.96324575394423    2.83623318845626
C        -2.94647837977327    6.14763900723440    4.52095829270860
H        -3.51042801965121    6.89535593191719    5.06316733866060
Cl        1.14069006834201    1.94470065185863    3.61705866794854
N         0.03966934233305    4.45214971555547    5.04608695736090
H         0.54770765339884    3.63086921984825    4.71042966893683
H         0.21471586453607    4.80588166602239    5.97120526901806
N        -1.43335053184082    4.27947607784960    3.26927780018837
N        -1.83481251556504    5.74887865134265    5.09160497328693

