94
CSD_code = YIDROS | q = 0 | S = 0 | Stoichiometry = C30H54ClO6P2Rh | MND = 5
Rh        3.49535700090682    4.44796457872517    2.25566817667381
Cl        3.76391088205877    6.58596314867825    1.70756003886572
P         1.30514593091375    4.99679420025365    2.86395778749628
P         5.78612033579562    4.24978513982053    1.83688536339476
C         3.05190963815796    2.46351380880883    1.85451466599185
C         3.34720341438008    2.54369464397136    3.08989398794942
C         3.39526165256880    1.93467671359315    4.39474928694466
O         2.41712997531926    1.69327124313056    5.06592880633017
O         4.65095269246159    1.63967230261611    4.78025460487376
C         4.77187146044800    1.01691134433491    6.04950840813026
H         5.82869339869320    0.79981961686600    6.18198003595494
H         4.18451909918959    0.09700374033497    6.07867798609468
H         4.41645191104123    1.68730451504279    6.83500780460596
C         2.70354939384860    1.71723984003167    0.69457051791127
C         2.57030803089572    0.28097451645177    0.86674702253160
H         2.77909781180262   -0.33466700829360    0.00197798931147
C         2.20418550732661   -0.32868002151587    1.99992311833307
H         1.93168641283201    0.20068610172478    2.89910322238075
C         2.13181651454515   -1.79565344107844    2.06221040196934
O         2.40546976396202   -2.55478339626127    1.16361887267714
O         1.72049246145048   -2.20706088892945    3.27426191911129
C         1.60998773705069   -3.60984271975251    3.44974593688337
H         1.22368487359313   -3.76290927940545    4.45405017736589
H         2.58712591548424   -4.08519503318898    3.33772319603074
H         0.92987606236279   -4.03290850388651    2.70728387185754
C         2.55299936114271    2.37057433794983   -0.49176301280787
H         2.73114874695990    3.44078735772090   -0.50954263390312
C         2.16650476403787    1.83493989917616   -1.79043957251558
O         2.24610224584085    2.47075768096213   -2.81880256633309
O         1.69390058440223    0.57201750871172   -1.75364476467067
C         1.30670159822795    0.02171360281686   -3.00064224200519
H         0.98432040233954   -0.99567129968040   -2.79426949971470
H         2.14806266101518    0.02603243983872   -3.69725340527372
H         0.49111432767125    0.60359445150294   -3.43585900409678
C         0.47831781308815    6.23818993785931    1.73636510702894
H         1.10566877751945    7.12719592209316    1.87662847996489
C        -0.96294958957577    6.60509284857990    2.06824345984068
H        -1.07601806514494    6.88470689997766    3.11323750582966
H        -1.64053344927510    5.78502812379377    1.84440976152050
H        -1.26433944026669    7.45718273767404    1.45942673299234
C         0.62440196056117    5.82717820612427    0.27259481887853
H         1.65145251785132    5.51727927983934    0.07559491752749
H         0.40015400313881    6.67412046470161   -0.37381309792806
H        -0.04289550692403    5.01250550221429    0.00747472816740
C         1.25273970571993    5.85503589627568    4.52434957491364
H         0.20525732927803    5.93468694233422    4.83298092912855
C         2.01439758536420    4.97993392083709    5.51721113503339
H         1.59563026724654    3.97808972103964    5.58077339806265
H         1.99897626770366    5.42441225781273    6.51174593156150
H         3.05514191538959    4.89327011968598    5.19679899943495
C         1.86137322867116    7.25374171683746    4.49710186294076
H         1.25250558454029    7.94717960869494    3.92250248585519
H         2.85934164135373    7.23153995472414    4.06394172591551
H         1.93797928857998    7.63798232124450    5.51374078489195
C         0.13925550950480    3.55243137999152    3.16240593250890
H         0.79227501503954    2.80797988059501    3.63502507497066
C        -0.34326322194443    2.96799241540294    1.83607133827486
H         0.46101927264935    2.94000128534492    1.10474557176773
H        -1.16511971017258    3.55388698225963    1.43076484130750
H        -0.70036757017845    1.94959873945868    1.98382076452686
C        -1.04706907389884    3.77475193919440    4.09833361742237
H        -0.72649359460365    3.97262536978777    5.11708978740153
H        -1.64351274565491    2.86305364858448    4.11725888718684
H        -1.68836873863079    4.58536099996038    3.76541508253930
C         6.41664351830110    5.11503558603157    0.30613103509565
H         6.25113943962863    6.16972884192690    0.55858610158781
C         5.53518658190140    4.81566495947926   -0.90361418788973
H         4.48722944229637    4.95260777870302   -0.63600905054573
H         5.67260658951711    3.80479511237799   -1.27567970877549
H         5.76737881899918    5.50844871692266   -1.71069320070354
C         7.89405070842476    4.91675296022870   -0.01189984579471
H         8.52055086564057    5.11346671134930    0.85529075086166
H         8.18724013197150    5.60843911208415   -0.80115145964033
H         8.09049249832416    3.90893838160061   -0.36832831313984
C         6.79695209465271    5.05841690804440    3.19129168748648
H         7.81412542084948    4.65805824865367    3.13946210484787
C         6.15202607040594    4.64974985684402    4.51333704173501
H         6.09054657967775    3.56704714145057    4.60445277534098
H         5.13937276484506    5.06136043998663    4.55280238672439
H         6.71431436262923    5.04089843588486    5.36046022183914
C         6.87536330500701    6.57960430494854    3.09962432951305
H         7.49310411511583    6.90190558803993    2.26527590524292
H         7.31963242854131    6.97183836032971    4.01400114630600
H         5.88523709567467    7.01481042124374    2.98831841925731
C         6.44692211978099    2.48591988627635    1.87783197858466
H         5.81960186214301    2.01556654890526    2.64653333605276
C         6.15572384697365    1.77883827247675    0.55542633810362
H         5.17036121443403    2.04525544006962    0.18136733614277
H         6.18466634439612    0.69852965996344    0.69315437656295
H         6.89673626177916    2.03939238700820   -0.19632935558746
C         7.90328892774049    2.26747494451693    2.28120779415361
H         8.07888345928259    2.53939188424804    3.31872914165739
H         8.59164853936162    2.81993421461397    1.64833730704088
H         8.13415504615415    1.20737273083486    2.17845697122820

