63
CSD_code = YIDSEM | q = 0 | S = 0 | Stoichiometry = C15H39IN4Si3Ti | MND = 5
I         1.70694674249143    7.92320384296735    6.09792649221995
Ti        2.01566639014729    5.30054948021010    5.54048003031278
Si        2.28360658026199    6.36492673817962    2.56200422634292
Si        4.51859247811623    5.58207472856366    7.47368981772533
Si       -0.87856567396273    5.09253709650583    6.82717544790591
N         1.61368346287546    5.25523503808350    3.70237333345185
N         3.82046220142808    5.02388399529123    5.99673124177710
N         0.74400364427219    4.51938658359345    6.68734540967194
N         2.28337825457346    2.99358184334058    5.04907305578369
C         3.88757413566147    7.12990037438333    3.28897449354596
H         3.77855991172897    8.20457300167483    3.39562827412062
H         4.74341182760993    6.95501056909183    2.64304818081310
H         4.11872107817513    6.72432442720496    4.27658899426223
C         1.02289526215896    7.73566308831271    2.09613524352991
H         0.10931956151694    7.31408116929805    1.68432096022335
H         1.43969741140606    8.40392085337165    1.34936383754732
H         0.74857688034347    8.33852324762114    2.95742295458907
C         2.76551989376027    5.48476104875953    0.92315377347840
H         3.45609356200900    4.66119268884409    1.08006520450213
H         3.24221705406536    6.18638058428352    0.24823010208056
H         1.89324472984378    5.09158401612914    0.41169130631560
C         0.99635242214774    4.02652162476071    3.27881406263785
H         0.79420102880109    4.00894959702200    2.20015286804185
H         0.03450345989866    3.88032226839751    3.80095846478755
C         1.94301464916625    2.86686746129579    3.63620748794125
H         1.49411882989047    1.88783937700109    3.40779737626699
H         2.85081404371241    2.98103587889546    3.03600195349693
C         3.12462797032654    5.86954173144889    8.76247364692389
H         3.10011857911708    6.91161774528907    9.06598529492545
H         3.27883790600862    5.27556544566986    9.65928666844982
H         2.14070846562052    5.62312215811520    8.35653601176173
C         5.54153721867951    7.18440643177861    7.20601544122397
H         6.33252530170305    7.03543849248796    6.47523180308786
H         6.00890165966140    7.50131556619107    8.13286256804759
H         4.92023125327783    8.00429174335981    6.85643488824688
C         5.72522175598016    4.28232275931560    8.21352108945137
H         5.25903238967773    3.31050277076586    8.34991062934036
H         6.08279074396659    4.61210885972708    9.18243358091017
H         6.59625909172142    4.14522376111320    7.58084335788575
C         4.46924062092217    4.02258554029527    5.19247723690826
H         5.51219840097710    3.85626390066828    5.49103086436191
H         4.47014513050581    4.32480202529321    4.13046729648285
C         3.68389899205294    2.70723318101421    5.33973524165009
H         4.08562806750408    1.91624795272287    4.68765099809747
H         3.77534614597539    2.37947259898781    6.37977205799585
C        -1.11519078276232    6.16074106820829    8.40471339181236
H        -0.84682917525933    5.61053993826843    9.30316872124364
H        -2.15076237100261    6.46893890093574    8.50779719706783
H        -0.50770251817643    7.06102145286346    8.37615613188391
C        -1.33459751928173    6.09127763475948    5.25180254142348
H        -1.58158561378378    7.11551169212441    5.51296433674155
H        -2.19872637082330    5.67012176898615    4.74543055820407
H        -0.50673923808376    6.12536936469774    4.53982702067487
C        -2.12602162552273    3.63737403866247    6.96482023321343
H        -2.02803262413974    2.92502621041970    6.15036276279652
H        -3.14287278880175    4.01323657430641    6.94970602785129
H        -1.99946190231443    3.09442309399295    7.89593695193792
C         1.12121998153542    3.21409101858124    7.16080923845661
H         0.35458546706592    2.76416302735740    7.80458068523361
H         2.05573703132316    3.27338969237322    7.74592926080070
C         1.35103542030445    2.30864550262186    5.93764153306932
H         1.71814339936050    1.31264063669427    6.22992614483501
H         0.39064171458735    2.18859509682012    5.42710399362956

