29
CSD_code = YIDZUH | q = 0 | S = 0 | Stoichiometry = C13H10Cl2N2PdS | MND = 4
C        -0.05198710751730    4.60268060070664    7.20359753952910
H        -0.19949588849318    5.48197823941825    6.59646577437779
C         1.25404807750020   -1.20791168221615    4.21655067487503
H         1.33041932803434   -2.06530307889768    4.88244678109186
H         1.15307285686025   -1.53596811698830    3.18518846757262
H         0.40228019098209   -0.57875178915167    4.51267716021838
C         2.67028670395110    1.89792467279171    0.99980017495866
H         2.97625985209774    1.76839514426743   -0.02657068318045
C         0.77272221264834    2.29334807662716    7.40915762642531
C         0.36393406148697    2.28540697723562    8.73076201388402
H         0.51071233028396    1.40748905218267    9.34571510123341
Pd        1.71375959889880    0.94726106448235    6.26890665761889
S         2.83210694923467   -0.29011495267916    4.40025774649400
Cl        1.87432904623079   -0.69071034703959    7.72168000797240
Cl       -0.74306844590034    3.39630206995399   10.92003176357119
N         1.50885139382514    2.37181734175449    4.98626406407445
N         0.94666576522006    3.47255767588340    5.33486560936386
C         1.89033687745616    2.23533624902429    3.65772235063571
C        -0.44934968319895    4.57005195461266    8.51926316233931
H        -0.92005139828462    5.42660564641866    8.97560640877929
C        -0.23965819924133    3.41573472315004    9.27283925665437
C         2.50766439589208    1.04779151743505    3.23691382647078
C         0.55986948741537    3.47585358148368    6.63700538890107
C         1.66581063556855    3.24608015819411    2.71543566410744
H         1.18839632954245    4.15298361302340    3.05171886713859
C         2.89851806749124    0.88797937493068    1.91983470460865
H         3.38489237216813   -0.02906441612485    1.62442494059196
C         2.05388179951696    3.07420379939655    1.40320833198571
H         1.87859239033186    3.86284285012646    0.68763061770687

