45
CSD_code = YIDZIV | q = 0 | S = 0 | Stoichiometry = C20H16Br4N2O2Zn | MND = 4
Zn        8.85127498438137    8.66688883391383   11.48980386466817
Br        7.49718093057620   11.82539515187817   14.63286172666089
Br        8.41713985155122    8.03525813478357   18.76921461330176
Br        5.49398438062261    7.07470124223651    8.68136624033229
Br        7.91709836753485    9.79493083378106    4.31625099282610
O         8.28823607690967    9.57849789689814   12.97137548306475
O         7.67569555475485    8.32842446378015   10.13041005454204
N         9.29581115842867    6.96709296823687   12.42261818251607
N        10.09569485535771    9.80686891970655   10.43644799687313
C         8.76408158312072    7.88532737604519   14.61015536090908
C         8.34598508451594    9.18047193353186   14.18748584135015
C         7.98469384397691   10.09354745577142   15.21692071898936
C         7.99816456670785    9.77993570623537   16.54842420658587
H         7.71714144202630   10.50956797572859   17.29214711528539
C         8.39133262301683    8.49285913645621   16.92242221667657
C         8.76784726145129    7.56968726418494   15.98279004400499
H         9.07571318660844    6.58154401710057   16.29146930751876
C         9.18135362353633    6.86877484274474   13.70308692253254
H         9.43149122702027    5.91071104016093   14.17015474125595
C         9.70421949190574    5.81656128868091   11.70567451631344
H        10.12197425397842    5.02771785488373   12.32836053718176
C        10.24908208959634    5.97775603312604   10.31612437775404
H        10.31289675250424    6.98169848909457    9.92147336267191
H        11.06377164133884    5.33504978335191   10.01888877412206
C         8.89238018015777    5.38857596065775   10.50937763489832
H         8.75401006051729    4.32963851914775   10.35562290908973
H         8.03246841756923    5.98887420137298   10.26088456735935
C         8.84349346085619    9.48651983458896    8.37705974670874
C         7.79714855253090    8.67464787119936    8.90323843236938
C         6.83131733601148    8.20709374441177    7.96916113567699
C         6.84945011217720    8.52098033497311    6.63786320811500
H         6.09178942540216    8.14260699314467    5.96910310542229
C         7.87651191468108    9.34058738935325    6.16389343325609
C         8.85094958368979    9.80792484949131    7.00570730593090
H         9.64241593059644   10.43300478974709    6.61917512955767
C         9.89963661378166   10.00885234210124    9.17815702092967
H        10.61095291046789   10.64556903418285    8.64218263643058
C        11.19738561457635   10.45443175111539   11.04574020584790
H        11.91670928280526   10.86885566834883   10.34199821193260
C        11.71463126791855    9.93650022681482   12.35655403101318
H        11.22052907805870    9.07336443286776   12.77910843873477
H        12.78179623002798    9.95566989769214   12.51746965622523
C        10.96274447940975   11.22429930363422   12.32063054915183
H        11.50183637989423   12.15001113448795   12.44905985545684
H         9.95547833744607   11.24122307835520   12.70348558795362

