80
CSD_code = YIFBOE | q = 0 | S = 0 | Stoichiometry = C32H45OPTi | MND = 8
Ti        2.33774554830520   -0.12767745325204    2.47857605433760
P         3.43337487580686   -1.14882809794700   -0.12541752509624
O         3.94012829493041   -0.61405864910917    2.35875908198013
C         5.20640200931198   -1.04939617159332    1.98627148843965
C         5.21249609193078   -1.10849412325619    0.43169378581930
C         2.82260008013203    1.07806446283726    4.18217849467289
C         2.46539378923772    1.21157432548856    0.91060620066492
C         3.08070322276570    0.65791668793701   -0.22633706588190
C         3.34783700405689    1.41480595516110   -1.36212011943632
C         2.99658559191005    2.75274219566571   -1.39453229475056
C         2.37165281303548    3.32057422581170   -0.29849514748935
C         2.12033216939758    2.56059574048848    0.83667703017414
C         3.62592506775812   -1.49648771199033   -1.91727912221825
C         2.42295775717581   -1.54240361862744   -2.62174207732034
C         2.39656426724780   -1.82825863253873   -3.97160155913938
C         3.58073505347643   -2.09139828908581   -4.64263041262641
C         4.77965475568639   -2.06261781707509   -3.95288893567118
C         4.80534749284944   -1.76928422211328   -2.59940953955806
C         6.28235587343686    0.04002034028595    2.42151251230104
C         6.40896727312450    0.16680201813604    3.94307153855322
C         7.69022667847300   -0.19890906694530    1.85419376539532
C         5.82010634499227    1.41229425698114    1.88310128223865
C         5.34705838031754   -2.51815399080413    2.58749091630069
C         4.40816057506524   -3.46430243192753    1.81699282878543
C         4.86470681604326   -2.57172752069728    4.04817155719704
C         6.75521409914093   -3.11072933313992    2.51005193525840
C         2.03891689468572    2.02132204411811    5.11629906181581
C         3.06040402742209    2.70417115879181    6.04880535417677
C         1.31258004984546    3.12177876813267    4.33866637091614
C         1.03429132173101    1.28759518317126    6.01180704468828
C         0.06119950785872   -0.12488323952916    2.92623405689820
C         0.15971202847282   -0.50871090960085    1.57531202848419
C         0.77649707883577   -1.77392185451927    1.52880297411490
C         1.08449455139372   -2.16146059024839    2.84216207187872
C         0.63971940203188   -1.14403461954401    3.71227771246365
H         5.67226970346219   -0.22340128260923   -0.00668555264177
H         5.73825356144519   -1.98987940809233    0.06708872717212
H         3.66480781330151    1.68559834604953    3.81597785074223
H         3.26217720354409    0.30507925638162    4.84108904590619
H         3.82651055579274    0.96449447991634   -2.22191056302989
H         3.20420759602009    3.34602948492488   -2.27402159964110
H         2.07853827805803    4.36150442264191   -0.32499378232639
H         1.62811161663966    3.04266114405072    1.67315168872335
H         1.50216245526669   -1.33599105847694   -2.08943016612179
H         1.45632465016551   -1.85087107148843   -4.50359842049499
H         3.56779325586502   -2.31893412380305   -5.69846615976159
H         5.70530369689980   -2.26710147684036   -4.47243245951943
H         5.75615322852127   -1.74512222599801   -2.08824675237903
H         6.98065458682779    1.06102838072664    4.18577910225383
H         5.42865226641363    0.25012027517207    4.40257295847069
H         6.94177166277964   -0.67823757759766    4.36888395823818
H         8.25899472568306    0.72424628368466    1.95287402468723
H         8.22872178425295   -0.96868580712985    2.39438155566446
H         7.67333848216566   -0.46639748194482    0.80226173012771
H         6.31344931240051    2.20704994724875    2.43882083427786
H         6.07991630729049    1.54602691336185    0.83534805523282
H         4.74040648200106    1.53299078239032    1.98350946764580
H         4.37885380265086   -4.43043909156736    2.31842065030446
H         3.39854391317180   -3.05719600349604    1.79755171862516
H         4.73487346398985   -3.64222859319807    0.79582082448225
H         4.74215754403160   -3.61170165352942    4.34617310025396
H         5.56868943532264   -2.11824657492781    4.73576037905897
H         3.89790808763184   -2.06754075180866    4.14727181684533
H         6.70078676622708   -4.17760930003825    2.72060948275189
H         7.18934523011756   -2.98752912581487    1.52196527346652
H         7.41957206286928   -2.66894119518881    3.24585901058791
H         2.56251416470183    3.39542972369062    6.72718629093712
H         3.58843116400237    1.96318415362775    6.64646893213839
H         3.79471948618591    3.26436780512485    5.47282669230062
H         0.77489553613554    3.77740509708013    5.02264371307796
H         2.03046549563167    3.72490489953571    3.78520805908227
H         0.59505138396388    2.69338570650149    3.64050489663847
H         0.66297760344493    1.96179758239470    6.78286257930537
H         0.17898423028316    0.93176675722904    5.44647461819580
H         1.50804099807631    0.44128878872752    6.50761524932551
H        -0.50918012808635    0.72000559205238    3.28910260975258
H        -0.29022417639220    0.00700284873549    0.73466878010428
H         0.87791302566250   -2.39317621943952    0.64720784132374
H         1.45118956032440   -3.13334224485249    3.15226757157747
H         0.60552533736555   -1.22741542285719    4.79081501823118

