76
CSD_code = YIFBIY | q = 0 | S = 0 | Stoichiometry = C33H37Cl2OP2Ta | MND = 6
Ta       -0.40891562134320    1.64158305905780    4.96648979005908
Cl        1.57526082481578    1.26202985866240    6.10738657442124
Cl        0.64375927423121    2.12838909902756    3.04981819025611
P        -0.56811078212835   -1.14165021995508    4.44172367957958
P        -2.63761145254041    1.27807817541976    3.67700093216283
O        -1.50731008233976    0.72218357353718    6.13414585371725
C        -0.80253869652185    3.59413960837775    5.40057592065558
C        -1.48129871146870    4.26616519413699    6.55638008332582
C        -2.85841256088098    4.78113210698280    6.09924080535689
C        -0.62808070883526    5.45863770197709    7.01824216008836
C        -1.66109697309675    3.30980081871512    7.73643034516466
C        -2.15223102274257   -1.44382111014939    5.37827988739873
C        -2.60601012155532   -0.10222277956080    6.01404708422544
C        -3.61844126693382    0.60954073683558    5.07943887602359
C        -3.26924857426297   -0.37267357399288    7.37587394044697
C         0.61351668774240   -1.93306406971787    5.58905656914404
C         1.59180300068841   -2.81058933224371    5.13425689061095
C         2.51255791378228   -3.34007119716246    6.02049375714387
C         2.47604848637453   -2.98713033369760    7.35878222636281
C         1.52112281537586   -2.09125164693182    7.81089593350816
C         0.59781320466131   -1.55947004136073    6.93131482366278
C        -0.65569230199160   -2.43203159414852    3.14433413945765
C         0.03740439329262   -2.16458465584843    1.96833828941198
C         0.04895375991796   -3.08423625713728    0.93613036664365
C        -0.64285130206748   -4.27611405621195    1.06820283332468
C        -1.33106399246987   -4.55050785956102    2.23873508104349
C        -1.33434569722409   -3.63711972526698    3.27712114640722
C        -2.79875039489300    0.10427316449346    2.28391467893100
C        -3.70313243743677   -0.94484854700440    2.18264165333605
C        -3.70705550235504   -1.74648117568311    1.05418338783666
C        -2.82556246759698   -1.49867001178444    0.01692026797321
C        -1.92953139466176   -0.44561177200861    0.10753083780582
C        -1.91014420029021    0.34811349873511    1.23778615590005
C        -3.67723642680141    2.63079668079701    3.03407400464282
C        -5.05641191913185    2.52078648012586    2.89902089347202
C        -5.78308853705046    3.58560708043234    2.39802752517850
C        -5.13797294843431    4.75258101347680    2.02097766235435
C        -3.76162320366568    4.85741105759188    2.14095858842455
C        -3.02998537298321    3.79866206748205    2.64786588203640
H        -0.46493478590477    4.36220757101625    4.70284962188758
H        -2.74768324746747    5.50364183052005    5.29473529395077
H        -3.46173888306867    3.95438689829520    5.72839766137247
H        -3.38086459304569    5.25740666269691    6.92639493158311
H        -0.51648609768431    6.18515139592215    6.21681056191823
H        -1.09003397742518    5.95215192978864    7.87123497535231
H         0.35986349399103    5.10998804902301    7.30747377409002
H        -0.70130230293150    2.87139772425854    8.00301751128069
H        -2.06756876456612    3.83456943429545    8.59893810594559
H        -2.33666455079872    2.50479354059708    7.46504835162728
H        -1.96493198540019   -2.18523589823957    6.15996237993362
H        -2.90918721387343   -1.83166584917945    4.69479053494225
H        -4.44714409299320   -0.04062393892831    4.79434791542174
H        -4.01744296234148    1.48445901919438    5.60398719623092
H        -2.54646720064784   -0.81661729303031    8.05677792331905
H        -3.62042815313656    0.55876673025429    7.81437541066975
H        -4.11113744026265   -1.05099726646261    7.25795997424646
H         1.63181035847726   -3.08111810062459    4.08813527582792
H         3.26589619852306   -4.02642600205524    5.66156057378148
H         3.19943498377471   -3.39966186738673    8.04665630089874
H         1.50439055854794   -1.79471341799459    8.84941376740982
H        -0.12073461245379   -0.82972545631140    7.28064669415037
H         0.57051799898146   -1.22733410078860    1.87407786289381
H         0.59488175747106   -2.87178922228606    0.02861828090110
H        -0.64142465263665   -4.99571111743504    0.26270235538574
H        -1.86218227107580   -5.48555804587598    2.34547501008064
H        -1.85628880406016   -3.87120393213429    4.19389626120673
H        -4.41421103095519   -1.14644706447383    2.97141047169589
H        -4.40591872241590   -2.56723561025825    0.98462322729934
H        -2.83619967923924   -2.12832490376627   -0.86006269181870
H        -1.24063434314039   -0.25042204348986   -0.70037540544287
H        -1.19768336832318    1.15798722550602    1.33707910201236
H        -5.55878075251361    1.60709464709614    3.18401400013812
H        -6.85587819609281    3.50577390530144    2.29956668474867
H        -5.71141714803085    5.58088879909692    1.63213632512232
H        -3.26108772412250    5.76630627498548    1.84257543822257
H        -1.95602348032049    3.86017847645906    2.76621062423527

