57
CSD_code = YIFFUO | q = 0 | S = 0 | Stoichiometry = C27H25FeO3P | MND = 7
Fe        0.46156649490132    8.84992189659386    1.05514346892624
P         0.28186757766549    9.55095348547466   -1.02947286810692
O         3.73419718380439    9.67723376095601    2.21121038885149
O         0.87858486361991   11.26894085696199    2.59337582895653
O        -2.12354312387271    9.47249364372627    2.18684307576353
C         4.66744436227664    9.15710479159691    0.07097596428199
C         3.63119291458352    9.05003148998413    1.17323502128668
C         2.51248749523491    8.14513022995361    0.89874199893377
C         1.81974307828559    7.61133387627854    2.03207368170816
C         0.64139182507391    6.87398546696687    1.82491219613424
C         0.13166075576374    6.76285043476486    0.51071029318862
C        -1.21317207954996    6.11476375225756    0.30371357986995
C         0.79815218402865   10.32165172557565    1.95390441630542
C        -1.12528650246441    9.18801420520819    1.69136538328128
C        -1.30259865593494   10.39070795092505   -1.39495252506384
C        -2.46596815709021    9.71702973725086   -1.02408766328426
C        -3.70616046193716   10.28479435046904   -1.24081199967934
C        -3.79896519200616   11.54305867192048   -1.81535913069210
C        -2.64809337564178   12.22616294819749   -2.16701036927828
C        -1.40288977424993   11.65609785643644   -1.95984880999639
C         1.48986430475463   10.75566526477093   -1.68934820090349
C         2.28907881667426   11.47099578691612   -0.80647533386500
C         3.19841373090230   12.40015582151614   -1.28239777556180
C         3.31641452617028   12.61859147927422   -2.64455298792325
C         2.52022864123954   11.90958901868140   -3.53134273055434
C         1.60907737368505   10.98339592763741   -3.05976494132023
C         0.35734103643397    8.31410310448612   -2.38105348993897
C        -0.76079913142410    7.81410382353178   -3.03713317771393
C        -0.62277914394690    6.81522386907540   -3.98639219005545
C         0.62655330811286    6.29992438549859   -4.28474818481316
C         1.74740334459892    6.79428746198758   -3.63599295544745
C         1.61268373919874    7.79143057154810   -2.69004402664769
H         5.42479122474951    9.88741764786406    0.34219978437526
H         4.19395367485372    9.45983172847432   -0.86071537129276
H         5.14148569969566    8.18845631950055   -0.07913439437132
H         2.65281865592620    7.51103783740456    0.02761031979010
H         2.20646440965890    7.79300524048931    3.02882668614251
H         0.07302898910977    6.50787245226846    2.67425759546790
H         0.82720713820569    6.50654599586318   -0.28641691558061
H        -1.59982923264259    6.34754508917480   -0.68686115667624
H        -1.92950388574187    6.45198708772244    1.04973064889376
H        -1.12660674702632    5.02845011839993    0.37654132664222
H        -2.38266735653384    8.74704054804325   -0.55169778932642
H        -4.60115022437472    9.75250861486132   -0.95381999763316
H        -4.76698386234449   11.99270975871784   -1.97905501122785
H        -2.71683358297941   13.21225436874414   -2.60267250274327
H        -0.51252198394166   12.20434092979954   -2.23093119261989
H         2.20255771652450   11.28315365753043    0.25410604338379
H         3.81764016841232   12.94735043367324   -0.58776420344562
H         4.02871903535931   13.33934521472953   -3.01792308844350
H         2.60922681206951   12.08081050960675   -4.59432734062915
H         0.98545014903475   10.43388580079314   -3.75202531909818
H        -1.74052379081109    8.21400963848225   -2.82004236454914
H        -1.49805707617100    6.43820236705192   -4.49532858569990
H         0.72895568485363    5.51870310532437   -5.02309614916747
H         2.72599858526379    6.40016484628396   -3.86924042768205
H         2.48748783996963    8.18754304279160   -2.19143653115898

