30
CSD_code = YIFMUV | q = 0 | S = 0 | Stoichiometry = C14H14SW | MND = 12
W         6.46269182832718    5.88487925125179    2.73161044611116
S         7.84957072153522    4.43480591019216    1.28657860119944
C         8.43610664300460    3.02822459200574    2.08840248744907
C         8.25762773488523    2.65299271948785    3.36345077778601
C         7.52529006747220    3.34175400710194    4.39494624506809
C         6.84972515392589    4.49204124188074    4.31437531383571
C         8.66229387086474    6.84892148886373    2.85965595166471
C         8.16060113424525    6.91009443118241    4.17611726048931
C         6.96063969131972    7.65655624108871    4.16293292314826
C         6.74528970746740    8.10580727845737    2.82042710400649
C         7.79218709457357    7.58634223185679    2.00283534119464
C         4.45707754636512    6.63921559981075    2.06562444411197
C         4.18687386899509    5.91941234664727    3.27343579309240
C         4.42263485040821    4.55114844601518    3.01830791668124
C         4.88210277809861    4.41743893930879    1.69086351078502
C         4.90637832668954    5.70923288665830    1.08267500141445
H         9.01762899697314    2.40957633829814    1.41838184147009
H         8.71899210356287    1.71963599676593    3.66491879515042
H         7.55326061822568    2.81711488014359    5.35030599841757
H         9.61609074171864    6.42206802348926    2.57235467048334
H         8.65602860253182    6.51612483249079    5.05342258932035
H         6.42259417123310    7.99735012497793    5.03707504887263
H         6.06602250533699    8.89957100535732    2.53600365383098
H         8.01960165089138    7.87963066871225    0.98811034053183
H         4.13307945107092    7.65244838244116    1.86392568834359
H         3.70439406229653    6.32166296545098    4.15390641807645
H         4.21891497784031    3.73252660531646    3.69552257478531
H         5.05183610095078    3.47700924479765    1.17934714495900
H         5.01836851721429    5.89693252845913    0.02447045156430
H         6.37599648197470    4.80098079149293    5.25371566616516

