28
CSD_code = YIFNEG | q = 0 | S = 0 | Stoichiometry = C11H11FeNO4 | MND = 7
Fe        5.58580794820874    6.49800714631299    3.17893839849049
O         5.74795834450808    9.09483324773778    4.47308227321876
O         3.15617826309558    7.40611235726578    1.85935195086711
O         4.47671231809320    5.39096153534939    5.62936340094216
O         7.94609906979044    3.51647637806259    1.93091355010803
N         2.54711226358029    4.13739678685943    2.17963903634440
C         5.77583157967037    8.08321300358573    3.94363107452074
C         4.10404635269197    7.02719992985971    2.36258742680838
C         4.94689381115158    5.81739000798985    4.68084979890843
C         5.07352317791505    4.55460557782567    2.44290612514911
C         3.67180352558762    4.32928937315294    2.30449295906146
C         5.79227335212931    4.30704717090628    1.10633358952145
C         7.28598504775763    4.58967158507807    1.31061611659991
C         7.42497369510764    5.91237452024389    2.07541656277301
C         6.86108059913251    7.06068408545556    1.48271052440693
C         7.84352148495482    5.92034484276070    3.41158617546739
C         8.61687202386249    7.03982862050344    4.06052527431030
H         7.38611414948072    3.16420230535182    2.63273102043794
H         5.43267118794578    3.81802877305599    3.17796988165507
H         5.38674305073420    4.96283033057010    0.33546060538478
H         5.65178452835715    3.27286782394689    0.77201491339187
H         7.79517416030962    4.70769128937432    0.34569522607746
H         6.55284887121192    6.98461030190444    0.44796143378082
H         7.27487481722348    8.03441451351447    1.71489454317256
H         8.14019166680998    4.95364080274654    3.81410883391279
H         9.68291621271070    6.83911617641120    3.93302930552843
H         8.41682062597461    7.08127148647614    5.12850722308073
H         8.39958787200443    8.01159002769832    3.62688277607949

