35
CSD_code = YIFNIK | q = 0 | S = 0 | Stoichiometry = C14H13FeNO6 | MND = 6
Fe       10.28652688988488    4.08687285187533    1.75204251067804
O        11.39927987648985    2.23613432536345    3.71453475690793
O         9.03937869434533    6.11886804084667    3.45134391275405
O        12.90779426416571    5.31941159648389    1.42647094004587
O         8.05018292667890    2.29049185028393    1.23822147627987
O        11.46423293010337    1.97574379509669    0.14729291853843
O        11.35440872821648    1.83931261584353   -2.66074773041491
N         6.92355624779725    6.85689129608451   -1.90929978320627
C        10.96864488574774    2.95249889177756    2.94419322165918
C         9.53889829084475    5.30460275451229    2.83514463649377
C        11.86679765475054    4.86339176535838    1.53179670338946
C         8.89487749105220    3.02791624965602    1.45153859938742
C        10.88090312969373    3.02735361681099    0.08885325669821
C        10.56037173226931    3.69352693189776   -1.25094381984887
C        10.24840636070208    2.63684167280261   -2.34419044216441
C         9.79034749196640    3.32871798548768   -3.63543340349558
C         8.65721190283126    4.32834077111371   -3.42110785340386
C         8.98005068116056    5.33967181547237   -2.30580734133507
C         9.30932966388220    4.54817204431868   -1.02783411365891
C         9.46721989604956    5.37740249863978    0.24694693699669
C        11.81898031802946    4.49356065981303   -1.62091956170233
C         7.83840925264244    6.19429820249224   -2.08488344916292
H         9.42317123726310    2.00518521747852   -1.96580865908372
H        10.65362803819488    3.81780986025694   -4.08728655185719
H         9.46655246513716    2.55365321504455   -4.33105189214134
H         8.46187594589044    4.85844928955519   -4.35535552869504
H         7.74468730829436    3.79224693731805   -3.14708239263161
H         9.82386975544420    5.97565879345492   -2.59196710641773
H         8.46866845569127    3.85725444071677   -0.87956323800413
H        10.10800609176242    6.24112198832536    0.04622036004427
H         8.48957638393861    5.78962881663215    0.51199193204882
H        12.70181370375114    3.87164465047810   -1.48642184437170
H        11.91683580336877    5.37999164795648   -1.00162646080966
H        11.79215425294308    4.79952159106605   -2.66181644781724
H        11.67165124901648    1.43161131968573   -1.84084454169945

