115
CSD_code = YIFXIU | q = 0 | S = 0 | Stoichiometry = C58H52P4Ru | MND = 6
Ru        7.32841880808408    4.56490141623445    3.56975549712908
P         7.12391371384992    5.50190472097123    1.52591523885028
P         5.74689753186665    2.95390729202114    3.43674112764975
P         9.32456888437975    5.46832927878291    4.19657242090186
P         8.56525473609154    3.04677844441715    2.57710368809201
C         7.71789254498718    4.28421777931893    0.23871626550750
C         8.79831501794681    3.33897063802493    0.76008785458902
C         6.59714290099512    1.28799781932039    3.40645748574972
C         7.98385433359382    1.30251535686052    2.75378088925023
C        10.67591605612327    4.53538451199362    3.32626099877357
C        10.28642171801999    3.06443826687125    3.21358991903949
C         7.49088104641115    3.48101265104697    5.27195934945847
C         7.63625110112650    2.77898045301532    6.25229677665791
C         6.23027460436875    5.96935808137803    4.54602964513433
C         5.58611190933824    6.80840873982893    5.14443367611135
C         5.50761151061548    5.97107487766792    0.82466813812146
C         5.25776643669317    6.02394488153681   -0.54279386497725
C         4.02150740684433    6.43816286197467   -1.00232104423406
C         3.03605192718569    6.82515740194183   -0.10867033527982
C         3.28531497527622    6.78820892352060    1.25227287839072
C         4.51279106367968    6.35323540488695    1.71791520424107
C         8.04945493914636    7.01497742851004    1.10532234621960
C         9.34993142417500    6.98898198626566    0.61488895954343
C        10.03650822498476    8.16841530159052    0.39214854311343
C         9.43177745205839    9.38466129416638    0.65587906466214
C         8.14023651197303    9.41811490952322    1.15574715384005
C         7.45578911205123    8.24199238825285    1.39020099729753
C         4.66867419765246    2.83670626457074    1.96752895695525
C         3.45712615126395    3.52222039183976    1.99054229041462
C         2.64575491967224    3.54540641092123    0.87324832177980
C         3.04332283938613    2.90127803230437   -0.28716921533224
C         4.25011925827555    2.22398027397232   -0.32186071661123
C         5.05982975704281    2.19100848652946    0.79956620388331
C         4.50833263807724    2.63968763967714    4.72968807870799
C         3.67080896294465    1.53027860092364    4.64132242819511
C         2.73727379295716    1.28920665235946    5.63124044129649
C         2.62321574628453    2.15749555274281    6.70636850416683
C         3.44270571873729    3.27082095961429    6.78714667622475
C         4.38582025956872    3.51252789429469    5.80287406101396
C         9.84985614830637    7.20399917418628    3.99897768054061
C        11.15331267112317    7.61515566977282    3.74616448552408
C        11.45304941563479    8.96487236799641    3.70529352466041
C        10.46598921459326    9.90935237658590    3.93112260981117
C         9.16700182042767    9.50313367754499    4.18580869914525
C         8.85844050518852    8.15663162613847    4.21336050226847
C         9.73443086547646    5.30945528044894    5.96935672773270
C         8.76299108651716    5.80205202205045    6.83919510388907
C         8.95795268895103    5.75588878795034    8.20459368452778
C        10.12702287833625    5.21854142659661    8.71995868547454
C        11.09561146681393    4.73105535550024    7.86151772265920
C        10.90538313922636    4.77544151008357    6.48982612888215
C         7.78420331654826    1.99203337176470    7.41768063315475
C         6.66470780071594    1.42233284532969    8.02944467426537
C         6.81093975109089    0.65445218788789    9.16743787195034
C         8.06769732041477    0.44026780015674    9.71178532670345
C         9.18308558477291    0.99908354108108    9.10800941887932
C         9.04737409068341    1.76687441564874    7.96877614251196
C         4.81069283021659    7.76823857433656    5.83809987254172
C         5.39898337370475    8.92309741247367    6.35952604685504
C         4.63098153581687    9.85211255990219    7.03290672214122
C         3.27035396872424    9.64830885574565    7.19987264772847
C         2.67935786652423    8.50332105744090    6.68883656575038
C         3.43860317395026    7.56932315339464    6.01309805332926
H         8.06121870584937    4.81883266405031   -0.65270126440727
H         6.81942558492269    3.71464937336192   -0.02517767816443
H         8.79075638872931    2.38680804404579    0.21702435552708
H         9.79307134351094    3.78270362035231    0.63777728998961
H         5.93584891222959    0.56394847555166    2.92044441175722
H         6.68376158929036    1.01412848004612    4.46288287797930
H         8.70995493833917    0.76876118255476    3.37651519684843
H         7.97076854941688    0.82529252973412    1.76751379041603
H        11.64015394333315    4.65832793465874    3.82560867933829
H        10.75125793655855    4.99127159852231    2.33093703753667
H        10.97491814051903    2.49347720546468    2.57855071136792
H        10.24186150770810    2.60806996724088    4.21100746173998
H         6.02482045212420    5.74993226311837   -1.25276579738017
H         3.82849685729974    6.46924310190953   -2.06534052192955
H         2.07613153651352    7.15772379155227   -0.47664230419586
H         2.52223439884578    7.09437689667194    1.95325288813588
H         4.71861372114136    6.30295867160847    2.78201117892498
H         9.83171675226991    6.04594364330608    0.39530777260780
H        11.04669043146323    8.13832314583536    0.00852434496733
H         9.96842663825988   10.30456277324277    0.47702883884224
H         7.66814794762385   10.36644120704673    1.36675259760665
H         6.45364823537210    8.26199149855445    1.79716714401983
H         3.15977110589734    4.02771048254639    2.90004423944812
H         1.70271265763514    4.07108078278943    0.90195734191187
H         2.41278370404607    2.92552504656379   -1.16366782329044
H         4.56061035412857    1.71795362988110   -1.22588058053305
H         5.99775452210213    1.65079198833971    0.76877141970573
H         3.74473668121146    0.86221025971682    3.79339246059710
H         2.09345110033233    0.42360626546979    5.56471509882112
H         1.89199927753744    1.96454745420390    7.47816153086390
H         3.35194608215197    3.95232088208762    7.62044203205972
H         5.03844845942325    4.37448697070912    5.85673340464104
H        11.93924060024055    6.89293794764775    3.58118669965105
H        12.46651970984242    9.28177378434335    3.50324584985382
H        10.71084452496994   10.96126658995220    3.90630372700125
H         8.39361669668558   10.23759375610958    4.35808873414696
H         7.84278583252101    7.81915644009358    4.38742187650051
H         7.84029149367043    6.19153866571456    6.42593839163713
H         8.19461674230239    6.13043533701980    8.87043552281634
H        10.27935784674815    5.17153867393230    9.78825965536332
H        12.00609884587702    4.30497317023743    8.25978001318455
H        11.67573064058787    4.37433432811413    5.84690602763642
H         5.68610407260422    1.59437379295704    7.60205667605393
H         5.93903207291543    0.21947931102282    9.63647423513753
H         8.17737829256479   -0.15974455202493   10.60381816166917
H        10.16487102578609    0.83331303366570    9.53033948963642
H         9.91432771085891    2.20882900420490    7.49725926052680
H         6.46219225350874    9.08001635657688    6.23458528001562
H         5.09518068281161   10.74321202949026    7.43336000544519
H         2.67301969642501   10.37784407371330    7.72805321482667
H         1.61824490247255    8.34011717333814    6.82068073333238
H         2.98144525335188    6.67263393347393    5.61595387439836

