55
CSD_code = YIFYIV | q = 0 | S = 0 | Stoichiometry = C18H32AsClSi2Zr | MND = 12
Zr        3.03627693249206   13.61260482856275    2.64647533400024
As        0.59952368983832   13.84331248656909    3.41317772251270
Cl        3.68662067484485   14.21818066165533    4.82804907187535
Si        0.12855071674473   16.14618974117327    3.68354743010821
Si       -0.61862356627308   13.31352932370704    1.46771735586918
C         4.54589273527772   11.66647514877606    2.88921531459585
C         4.07315771956554   11.60935465474954    1.55668851181293
C         2.69077983549608   11.32260993821082    1.58849999347139
C         2.31385212323630   11.16400895329702    2.94274054219215
C         3.45579631207182   11.37184201697456    3.73986459448800
C         5.96108827281527   11.92499802298052    3.33109969230554
C         4.78517476131396   15.43493546143389    2.10352294309210
C         3.49209350783965   15.99848549281061    2.09641873165616
C         2.75436766631192   15.41225387271536    1.03279953925736
C         3.60678761411580   14.49027924190650    0.38066193136882
C         4.84947847750071   14.49987159650397    1.05096867160446
C         5.92960959387540   15.85614672939435    2.98039447493417
C         0.11472831592742   17.38468672557555    2.19888447486610
C        -1.64182890698667   16.24519241735721    4.43734800927542
C         1.29738132447753   16.84262992327991    5.03717129163039
C         0.24879820564785   13.44869920487795   -0.25213495121417
C        -2.27328014174516   14.27257788819569    1.29916203136301
C        -1.14090262626708   11.46623292766708    1.62758741388212
H         4.68891935949641   11.63471551270852    0.66480091758296
H         2.07793412669009   11.07706194463893    0.73005321295369
H         1.34967486564998   10.81856931394704    3.30128516936618
H         3.50452509814815   11.25811295106013    4.81668010702457
H         6.00870635986966   12.77524541944346    4.02016391620389
H         6.60653523262813   12.12501217556836    2.47465553400965
H         6.36055440952049   11.05488785036235    3.85664915252153
H         3.16904534359197   16.82479128842850    2.71665746900698
H         1.79198370766629   15.75214198464094    0.67093550414647
H         3.40155616639363   13.98281154642142   -0.55501451961442
H         5.75027764341503   13.99590717092938    0.72144825516045
H         6.78390593371122   15.19305949134623    2.84515462061644
H         5.64584801608529   15.85476924886374    4.03417362658186
H         6.24409795905903   16.87029141726660    2.72448113778006
H        -0.33501531780531   16.93880828763381    1.31617461202415
H         1.10532499288964   17.73584684339209    1.92948992163644
H        -0.47663342918919   18.25887854539002    2.45224606963495
H        -2.40403941372382   16.21273813899376    3.66656311675846
H        -1.79966921692300   17.14595235891278    5.02140244578763
H        -1.79226659340461   15.38452966601909    5.08712776939438
H         1.03450061294068   16.40482333642034    5.99612184270245
H         1.22375953738187   17.92139453064423    5.13316670383327
H         2.33835761202865   16.59265978577722    4.84951462328882
H         1.27385706445047   13.08415399291520   -0.21315238967896
H         0.27077675614614   14.47077056585655   -0.61825427433289
H        -0.27757265505636   12.85798896119918   -0.99588130799316
H        -2.84568873291419   14.16568114784324    2.21499486517199
H        -2.87699445823533   13.89879719801233    0.47876939830635
H        -2.11044337308548   15.33206917984617    1.13481900386218
H        -0.32708313660355   10.78512989686638    1.39853364774933
H        -1.96539114990765   11.21917822541374    0.96660698419209
H        -1.46316655913682   11.27192476493983    2.64847273932938

