60
CSD_code = YIFZES | q = 0 | S = 0 | Stoichiometry = C17H37ClP4Ti | MND = 10
Ti       -0.29489266908625    0.62998646283262    4.74031038198195
P        -1.43987005933995    2.13360343727854    6.44136559295322
P        -1.89694938047034    1.86850429043836    3.21216596827172
C        -2.43184042191468    3.36319437161831    5.46477655109527
C        -3.14938836601067    2.65740789543123    4.32666413762265
C        -2.78658336260506    1.59974910438721    7.59554287736725
C        -0.64252154427729    3.32705593049826    7.59672801784369
C        -3.05509344624529    1.06257405297141    2.02248169684730
C        -1.50206490662030    3.33321104992614    2.16198285057214
P         1.25772937743274    0.56276123994692    2.73470063970820
P         1.95183948564095    0.73093347630320    5.93095115048377
C         2.92737442467176    0.12781740395266    3.40953370511341
C         3.22610317811506    1.01128840807026    4.60907265317771
C         1.17120760666063   -0.68318433260746    1.37591459688280
C         1.75436269843892    1.99161948902077    1.67824432985892
C         2.78198553908663   -0.69947341766554    6.76524952285911
C         2.53699215125224    2.02037331010560    7.11016305473537
C        -2.10840481013032   -0.76182397657924    4.80487245174573
C        -1.19004885658585   -1.18425865595893    3.81631875963241
C        -0.02314296771176   -1.62977403377203    4.47845267112996
C        -0.23882135554622   -1.50429709205371    5.86298162854230
C        -1.51426346213583   -0.97292104312891    6.06288630471726
Cl        0.60813274058927    2.86480668545292    4.59604158854546
H        -3.14506321602204    3.85708349187191    6.13488658948833
H        -1.74391433893830    4.11449586735826    5.06760598064465
H        -3.77590601211301    3.35280986324009    3.75529038423497
H        -3.78715682247219    1.86181342762422    4.72588879106433
H        -3.51900525047817    0.98958972866726    7.06939290546628
H        -3.28514777902871    2.46704619089721    8.03051672894698
H        -2.34926059082915    1.00641542104393    8.39851177005636
H         0.12014791681581    3.89661475247605    7.07250408415345
H        -0.18325504964583    2.77401646891018    8.41530745672870
H        -1.39660649750191    4.00537457273612    7.99787808538488
H        -3.55544288947188    0.21544381716925    2.48516352691551
H        -2.48038446487781    0.70354886271147    1.16808538665284
H        -3.80022707398028    1.78021694248314    1.67720684307002
H        -1.04976612664600    2.98247457182335    1.23578819251283
H        -0.79833841045673    3.98752717883768    2.67048841867930
H        -2.41768446117420    3.87747361175962    1.92746869547075
H         2.89860685796265   -0.92216194208252    3.71893028162217
H         3.68935234774483    0.24080568912724    2.62901600931318
H         3.18741078016457    2.06493312161089    4.31957219746111
H         4.21864265501713    0.79484859498817    5.02099080314817
H         0.32189290993156   -0.43954887143796    0.73672636691071
H         1.02799808263646   -1.68332094928647    1.77737083836745
H         2.08565296107484   -0.65754787349480    0.78219410278328
H         1.87352420413048    2.88815089629251    2.28136792753882
H         0.97249348698812    2.16596793093300    0.94107149707374
H         2.68660073268225    1.76127968643507    1.16112607259721
H         2.73023042675539   -1.58786563066647    6.13780736295720
H         2.27167312872043   -0.90531865180844    7.70613196937270
H         3.82680861496254   -0.46681161783866    6.97532807703139
H         2.28203457927952    3.00820705733846    6.73600991824275
H         3.61826113184160    1.94083988176222    7.22945009398788
H         2.05564138872420    1.86272367709002    8.07466885077311
H        -3.14894389486779   -0.50654820252781    4.64380569269646
H        -1.39942134438000   -1.29051254196751    2.75897683910088
H         0.80931786681398   -2.15371500722697    4.02435359116259
H         0.40700985251202   -1.87126743068917    6.64758625519750
H        -1.99601729508176   -0.86953664262819    7.02453028150222

