81
CSD_code = YIFZUI | q = 0 | S = 0 | Stoichiometry = C23H52BP3SiTi | MND = 9
Ti        7.36506003050693    2.30186745401731    4.27742168121947
P         8.87949172072391    0.32496574182809    4.25756774993933
P         6.23363471344611    1.24704399407578    6.21175618050561
P         7.39343272607287   -1.98882331882260    9.12773197944882
Si        8.98205106093238    0.21116401564414    7.45831958941814
C         6.65434066350557    3.64188039487678    2.68032039915155
C         7.28107854239200    2.53522721231484    2.03996500521501
C         6.50819993096220    1.37925308200513    2.32786096082135
C         5.41100884077797    1.76845854773963    3.13979579120043
C         5.49774696764814    3.16811816426850    3.36149534548298
C         7.01807318204251    5.08122774925538    2.48557284285994
C         8.39550537502686    2.66651951287006    1.04348821854503
C         6.64890360899229    0.02345229293155    1.70153459013931
C         4.24802401092548    0.87754960712295    3.46211757327181
C         4.46253789659908    4.06409370629867    3.97545190575624
C         9.88321475320794    0.46002508428383    5.79313570695221
C         8.67962231331608   -1.51543125816993    4.12504208610126
C        10.28649015266709    0.47359827526689    3.06913748616637
C         7.42798333878379    1.30169319859865    7.60838012287901
C         4.92093406705595    2.26304572414468    7.02006133613917
C         5.46177282050352   -0.41183082021741    6.49255891195629
C         8.51593456413860   -1.64421387242441    7.67313346287690
C         8.56882396787282   -2.86990584253691   10.25785641483967
C         6.59529884235814   -3.52658241743729    8.45722755051579
C        10.20180754981150    0.73716576980743    8.87216772989192
C        11.27827035706845   -0.32844829506605    9.07594306577300
C        10.90303182071915    2.05732575073618    8.54532307408867
C         9.42134645209439    0.91881890938052   10.17418197570591
B         8.65347635097501    3.88191282890124    5.29744193945785
H         6.73558715336300    5.67418894356391    3.35518582968523
H         6.49581562682412    5.48510052547985    1.61171372658509
H         8.08994849217452    5.19435543496904    2.32512397682015
H         9.28010330360348    3.12344753323343    1.49159967917789
H         8.07363671547591    3.30584182685230    0.21713036605477
H         8.67419535199683    1.70010318378676    0.62738184499991
H         5.98390309886903   -0.05366527833558    0.83586922874904
H         6.37386540436355   -0.76490680024036    2.40274980835042
H         7.66643472028325   -0.15634506769471    1.35715116915192
H         4.57722944903669   -0.13976043716010    3.67297360997033
H         3.56877452684352    0.83648744675644    2.60505871510798
H         3.68276625140148    1.24485577490861    4.31733923620932
H         4.06205433149043    4.73757427137890    3.21310836562010
H         4.88970172144699    4.67874629403044    4.77043692830691
H         3.63212077364106    3.49199737419133    4.38480761117134
H        10.25545638567700    1.48742098825595    5.77499105135395
H        10.73912196819720   -0.21522111024948    5.70132633897191
H         8.61235266834524   -1.78549682972721    3.07289361085965
H         7.76747394431265   -1.84234664658260    4.61859817072821
H         9.53607454974952   -2.01932928043346    4.57121701253443
H        10.68302275790363    1.48691439090816    3.12942273776773
H         9.94006600589315    0.29428009485065    2.05308509109151
H        11.07160676200391   -0.24519241426531    3.31126272683546
H         6.88283070051237    1.05387685841350    8.52349532147729
H         7.74505238769961    2.34665056647011    7.66185342450224
H         4.02248154433760    2.27888503044112    6.40610961356402
H         5.28962343141050    3.28342899379473    7.12458030227989
H         4.67759595901673    1.85462578409210    8.00253035019802
H         5.95215276370298   -1.16436006888805    5.87879747140245
H         4.41141857345033   -0.36965620722404    6.21016590072356
H         5.54701766354060   -0.68679965057979    7.54462360193416
H         7.96566608568244   -1.97187349029850    6.79428640618824
H         9.40661250112423   -2.26682711972083    7.75246909918263
H         7.98425828611385   -3.35202402777794   11.04055661506891
H         9.24527286242672   -2.16147296094871   10.72822110729232
H         9.14236196034681   -3.62492635787870    9.72082667739061
H         5.89383392399002   -3.26216056902316    7.66884676653658
H         6.04242928591552   -4.01455570078659    9.25822844213931
H         7.34256629333686   -4.21479358770018    8.06328027805976
H        11.83616373099314   -0.49528883588949    8.15715726914425
H        10.83993546986095   -1.27168407324261    9.38595782129945
H        11.98274782009197   -0.01334883031538    9.84508047479751
H        11.58985404397312    1.93717820771582    7.71100216608760
H        11.47666848787872    2.40004248574590    9.40606366690181
H        10.18759460760875    2.83393020912045    8.28535416323485
H         8.78567958432223    0.05818617827761   10.37337668741370
H         8.78761041126648    1.79975212545051   10.11805081003949
H        10.10283483268440    1.04609230313435   11.01482686578090
H         8.97643641163186    3.07019406707742    4.34948869518966
H         7.41039484882771    3.62443802591879    5.49259635736347
H         8.79897242675238    5.00760157817807    4.94567941681604
H         9.28022451741976    3.61266765612263    6.28647671555125

