79
CSD_code = YIGBAT | q = 0 | S = 0 | Stoichiometry = C44H28N4O2W | MND = 6
W         0.00000000099206    0.00000000230228    4.82896552805310
C        -1.76334977088682   -2.96207865090003    4.82902285728057
O        -0.00031084018015   -0.00039799882842    6.53991052210452
C        -3.06707171850841    0.36217690997519    4.82905635003513
C        -4.29591399077388   -0.38930823315089    4.82901776053284
H        -5.27903124706995    0.04064543083154    4.82897104392473
N        -2.01786703737169   -0.51175969560658    4.82916341415470
C        -3.96189567928657   -1.70553048604412    4.82902041253709
H        -4.62105222030937   -2.55223003668064    4.82897812527013
C        -2.52611883991596   -4.24045756120667    4.82900972396009
C        -2.52340711181495   -1.78017779793464    4.82906060585036
C        -3.95553658853298   -6.62317066877886    4.82899853151187
H        -4.51143897811817   -7.54898499342118    4.82899496297069
C        -3.59820497205053   -6.02818703020311    3.63060847824410
H        -3.87538464087156   -6.48955175885369    2.69417030001512
C        -2.88630767552264   -4.84149192936447    3.62876776537144
H        -2.60493496551216   -4.37212410773690    2.69787308406682
C         2.96208170104214   -1.76335151587348    4.82900458335507
C        -0.36217554446139   -3.06706996525109    4.82904604197783
C         0.38930822658962   -4.29591303192441    4.82901362773399
H        -0.04064646970973   -5.27902979404970    4.82898105684092
N         0.51176210843095   -2.01786631824037    4.82911932702035
C         1.70553091952109   -3.96189637458303    4.82901242451875
H         2.55222977798414   -4.62105386640667    4.82897709144517
C         4.24046081719862   -2.52612072693902    4.82900286474285
C         1.78017981452454   -2.52340784190104    4.82904370923813
C         6.62317429576086   -3.95553873111712    4.82899853514494
H         7.54898866650746   -4.51144113469699    4.82899689074551
C         6.02819155625857   -3.59821141938582    3.63060708460304
H         6.48955720357370   -3.87539277999919    2.69416989350684
C         4.84149508594880   -2.88631712711867    3.62876347453305
H         4.37212803290008   -2.60494717472894    2.69786756455785
C        -2.96208170119202    1.76335151650965    4.82900398470734
C         0.36217554456720    3.06706996645990    4.82897062909157
C        -0.38930822751685    4.29591303199382    4.82898927131976
H         0.04064646803056    5.27902979445822    4.82901003453644
N        -0.51176210663583    2.01786631807021    4.82891711065813
C        -1.70553092001831    3.96189637332204    4.82898897167877
H        -2.55222977927534    4.62105386427080    4.82901152730634
C        -4.24046081685970    2.52612072830582    4.82899972341702
C        -1.78017981353857    2.52340784070852    4.82897274144939
C        -6.62317429597922    3.95553873137648    4.82899955736277
H        -7.54898866684117    4.51144113474084    4.82899972689449
C        -6.02819691114030    3.59820616165117    3.63060677550441
H        -6.48956498354350    3.87538637923767    2.69417028533513
C        -4.84150466844486    2.88630472438248    3.62876071533878
H        -4.37214088761539    2.60493210640366    2.69786404691547
C        -3.59820928708609   -6.02819585606224    6.02739385086187
H        -3.87539188617880   -6.48956581444727    6.96382860906723
C        -2.88631090358975   -4.84150252698569    6.02924495164129
H        -2.60494154363968   -4.37214061045803    6.96014356602126
C        -6.02819312556246    3.59821234463518    6.02739201872215
H        -6.48955980993842    3.87539438068108    6.96382847042356
C        -4.84149688378344    2.88631801899406    6.02923773370964
H        -4.37213104633470    2.60494863380940    6.96013437242069
C         6.02819848002852   -3.59820708618587    6.02739232776026
H         6.48956758925816   -3.87538797954865    6.96382807853899
C         4.84150646640590   -2.88630561462163    6.02924049284285
H         4.37214390123027   -2.60493356395969    6.96013789003181
C         1.76334976950022    2.96207865263770    4.82898453213124
C         3.06707171639769   -0.36217690921881    4.82896113598041
C         4.29591398828701    0.38930823402223    4.82898408119423
H         5.27903124463081   -0.04064542997183    4.82901877075575
N         2.01786703525674    0.51175969697238    4.82887293585882
C         3.96189567695750    1.70553048684071    4.82898227279571
H         4.62105221807663    2.55223003740682    4.82901222798472
C         2.52611884203127    4.24045756212424    4.82899234367272
C         2.52340710965367    1.78017779885753    4.82895519843357
C         3.95553659240934    6.62317066816111    4.82899946662501
H         4.51143897926017    7.54898499440063    4.82900170901386
C         3.59820835253621    6.02819440402452    3.63060510889049
H         3.87539028779285    6.48956349288389    2.69416969875974
C         2.88630999545221    4.84150089391367    3.62875590600388
H         2.60494011274220    4.37213797977651    2.69785788801601
C         3.59820591460048    6.02818848084665    6.02739048163843
H         3.87538623957304    6.48955408363723    6.96382800812669
C         2.88630859219194    4.84149356093254    6.02923309184720
H         2.60493640038251    4.37212673915483    6.96012836923581
O         0.00031083112561    0.00039798267232    3.11800567363066

