64
CSD_code = YIGCUM | q = 1 | S = 0 | Stoichiometry = C23H35NNbO2Si2(1+) | MND = 13
Nb       20.78668193006895    3.67200161047311   12.63874357347452
Si       18.37060618588303    0.55092897122622   12.30493245826919
Si       24.33622913281889    4.09473786412351   14.36844684761211
O        21.73575250147269    0.48544394177406   14.79899771008503
O        23.25168967895807   -0.02394048189784   13.21931138819288
N        20.36224225145165    3.13830994898594   14.66833509220186
C        22.06036594711037    2.20525330114599   11.62631767367888
C        21.87994475975260    1.80451725550358   12.84432441960072
C        22.71379407815873    1.79646994241677   10.36634554926446
C        22.25460669133858    0.70543738952944   13.72208847333121
C        23.71744477829989   -1.10490306596582   14.02268456924836
C        20.23401266183582    2.68182128437354   15.71691438686464
C        20.10595242412628    2.08107030681511   16.99729412043740
C        18.84850432837770    2.36668473048387   12.01995486945108
C        19.39623791983536    2.89229479659388   10.81328756174337
C        19.23341084609117    4.29346773138747   10.80852657739670
C        18.57349825053932    4.65732288649540   12.00023986088950
C        18.34318360959044    3.48716901301309   12.74220958564013
C        18.41851042022614    0.19386938411175   14.17706480207495
C        19.61359410311002   -0.55304378795744   11.36982967012644
C        16.61011850857085    0.35114224079048   11.59972348304806
C        22.81607719577703    4.74944298688373   13.43990421375597
C        22.72799296118372    4.97710065081491   12.03558881272549
C        21.62612753543782    5.82194892025498   11.77932552452693
C        21.01955908313341    6.13183528695383   13.01387150275561
C        21.74297535677439    5.47873346977697   14.02600932759877
C        25.29256732864718    2.89638068939779   13.23555535358694
C        23.72853360142323    3.22409606114572   15.95561498711565
C        25.39884584578489    5.61808113880152   14.79976442979799
H        22.52632913486238    2.49983578783066    9.55545621836321
H        23.78997770929406    1.71823798895236   10.52733373947308
H        22.35437917625659    0.80928396400992   10.07192033200338
H        24.48970066757611   -1.60155741569566   13.44214717270999
H        24.12696838052879   -0.72669694684233   14.96103274341459
H        22.89929940764680   -1.79249909345047   14.24332136527100
H        20.59581518554446    2.69550926622587   17.75259318466799
H        19.05458647502812    1.95893932318499   17.25677730415217
H        20.58806390299451    1.10207648154473   16.95427772891431
H        19.70219395354242    2.29632872252546    9.96318117499873
H        19.41679710125060    4.94374697350350    9.96343920186863
H        18.18876433531912    5.64052412085407   12.23490849158337
H        17.74072945544275    3.42544505422866   13.64029835715757
H        23.49495273001234    4.71587055681312   11.31771052353334
H        21.40165642187165    6.29208316051809   10.83099860909157
H        20.23387289170514    6.85874382630076   13.16985281713907
H        21.60071055508249    5.62498840676017   15.08967344833051
H        18.03644349534649   -0.80029453967324   14.38391089618198
H        19.43427736326052    0.24412632579973   14.55885614326893
H        17.80837813043043    0.89668527472435   14.73708191469450
H        19.39301667207319   -1.60069602985925   11.54541529377454
H        19.56787760207490   -0.39309872706473   10.29677226535005
H        20.63418138204215   -0.37108124785637   11.69559885795739
H        16.26972341289516   -0.67305050529315   11.71014983650036
H        15.89567052949136    0.98968938010464   12.11075962516635
H        16.56953922596249    0.59655728659458   10.54256707977596
H        26.16832715674657    2.51214862489602   13.74861920729856
H        24.68644093359423    2.04652137749576   12.93582937420223
H        25.64435620114454    3.39358515063695   12.33641262500725
H        24.56710459787655    2.82216625288587   16.51471396500799
H        23.20870874818070    3.91633139811037   16.61172105078675
H        23.05336464908973    2.40306720156192   15.73159191543957
H        26.28904486455113    5.32083130116963   15.34414970318429
H        25.72323567740908    6.14562397768771   13.90778119849316
H        24.85815195808303    6.32715285336301   15.41963981074048

