70
CSD_code = YIGCIB | q = 1 | S = 0 | Stoichiometry = C25H34CoN6O4(1+) | MND = 6
Co        7.49209062400815    2.67073342245130   16.90190957203437
N         7.32432414101562    0.67330159362995   16.82415191652975
H         6.32099216449643    0.59680634352862   16.63273271859342
O         5.48695194063101    2.61318802399611   16.94438483244398
C         8.17920171316056    0.59716085314825   23.53210942416558
H         7.88842650485917    0.04941585374312   24.41626576274295
C         9.17689282952530    0.63802928734726   21.30532811159730
O         9.86469548063519    1.69600561849594   17.06973296219708
N         7.30972952672860    4.68445049624662   16.82712175820490
H         8.25362607162379    5.04932113601865   16.99833346427942
C         7.51926474929172    0.16786979951464   18.18816479073879
H         8.58824989421612    0.08189197304560   18.38154348324160
H         7.07027525180889   -0.82436127312445   18.30946268533088
C         7.65522928722687    0.34316714604391   14.39855398244431
H         8.11576619490290   -0.33737896380989   13.68298211019722
H         6.57327286362772    0.29717230526350   14.24994625628362
C         7.72885109289700    4.13647003823468   14.49646165668439
H         8.80389956034678    4.32104472555625   14.57637433750929
H         7.42298391850181    4.31021583124557   13.45961154023276
O         9.79605802018042    3.79869059747302   16.63680991811761
C         7.91159945068702    1.95793022103898   23.45493302524473
C         9.97701373595940   -0.05902858126725   20.35884396953670
H        10.37274581064209    0.45206844372139   19.49403575200851
C         6.85850277964918    1.15139716674455   19.14252992493675
H         6.94394044907913    0.80139878928808   20.17444366221842
H         5.79833719303676    1.21878887972594   18.88964659675538
N         9.25719969444135    2.72973636112167   16.86966801984798
C         8.21670112692297    2.67004635868434   22.24912249127267
C         8.85941788303835   -0.06224702232852   22.51484315084531
C         6.78238231523192    4.94943408373069   19.21738651365846
H         6.18859431127706    5.56148862397721   19.89662633348365
H         7.83042533028654    5.20458997453525   19.37789692519361
C         8.14818024649055    1.75770134521905   14.10326171949513
H         7.98673114072571    1.97185941096149   13.04030479409225
H         9.22186602743926    1.83039848535604   14.29766857328118
C         8.02214144475171    4.07822758624780   22.27434236866723
H         8.35148802977887    4.67666748975818   21.44150371588404
N         7.44807311482427    2.50513359764832   19.00038797597407
C         8.00682489560240   -0.13133979399484   15.80606699913494
H         9.08401640680761   -0.06256701755477   15.97110057181361
H         7.71179691852170   -1.18128971679022   15.91457673402993
C         6.48696386578742    3.48557641874483   19.54860134638301
H         5.50291934340737    3.25430919328453   19.13839908162638
H         6.44154703100775    3.36197833007554   20.63486019574566
C         6.40544390200686    5.31802686989476   17.78932087793332
H         5.38515388836153    4.98940992705254   17.58154019987551
H         6.44591699428451    6.40700588528220   17.66939886576964
C         8.74984039277822    2.58880900706196   19.75747973095816
H         9.51149392299744    2.07557455913945   19.18163666532924
H         9.03601185613995    3.63715786725844   19.81022381660339
C         6.96353833243156    5.05065741596941   15.44258819304953
H         5.88864882038089    4.90550606973020   15.30346062144612
H         7.19700482607923    6.10136262690586   15.24552196918835
N         7.43595198693716    2.75631241134643   14.90729328766296
H         6.41630217252290    2.61647093010925   14.75690757428941
C         8.72175439457733    1.96606789170730   21.13750390771366
C         7.50480701943554    4.71340980811403   23.36308970550774
H         7.39692459338668    5.78755861515111   23.35805015323367
C        10.35563120535978   -1.35407472947932   20.55460532841015
H        10.98755457342349   -1.84272955713726   19.82841317985773
C         7.12395025953489    3.98944459595081   24.50936114394116
H         6.69688708888658    4.51114204168592   25.35115982418216
C         9.23819244430211   -1.42074912086638   22.66516259724832
H         8.96344185699870   -1.92422653365446   23.57967716256363
C         7.33752075712752    2.64720396623158   24.55392177982142
H         7.09926931281174    2.07756484971341   25.43937898278300
O         3.66472354743643    2.58203919611381   15.79229960066893
N         4.88098904991799    2.58400036428261   15.77996706347249
C         9.95510097775533   -2.06154424251684   21.70365886072805
H        10.25045544904575   -3.09165415102220   21.82584718306167

