131
CSD_code = YIGDEA | q = 0 | S = 0 | Stoichiometry = C68H50I2N6O4Zn | MND = 4
Zn        2.95641304602601    2.11299894626474    7.69050232271634
I         9.39547209934880    7.94036484554681    6.99840593184802
I         5.49374047943907   -6.16890625977809    6.78543565847885
O         3.59026376379198    3.91522261108783    6.87852801753614
O         4.73597577391695    2.82258972581235    8.38343450884203
O         2.84203429706676    0.17372810890249    8.41405305629409
O         3.80219494099629    0.67922902881227    6.51851837664043
C         0.22214354228422    1.14854903837242    6.87764752333348
H         0.41237743841705    0.53348383179400    7.74527931619172
N         1.16435521651167    2.03582668897535    6.57994732872859
N       -10.58538588879331   -3.54601580693610    1.83903121538017
N        -7.02880533187120    9.31271655923732   -1.76423358435226
N         1.93685136277816    2.97521280980009    9.32592952466303
N        -5.58284155798684   14.18417607284427   14.89442878409852
N        -1.02070621436774    3.18099697808525   21.92557432364562
C        -0.93120370283465    1.00497505634789    6.13477006167341
H        -1.66930311996764    0.27147072402550    6.42268536941016
C        -1.14685861138514    1.82053825425389    5.01728801539789
C        -0.12998273587087    2.72952371730272    4.70591895473897
H        -0.20516793700477    3.37162443593996    3.84330716836567
C         0.99210850700089    2.79898978637829    5.50657655247143
H         1.79388861715819    3.49141757353635    5.29909401391311
C        -2.38035221183402    1.69196208811449    4.26822648115870
H        -2.99125449864807    0.84571741667765    4.55164701211567
C        -2.81391135542206    2.54391704548919    3.32800813528101
H        -2.21688294076513    3.41330104185706    3.08570257157822
C        -4.06830994490163    2.45519101138858    2.60219484778594
C        -4.87188430035637    1.31574334993884    2.61430624100391
H        -4.55756144563120    0.44190778228511    3.16432456017769
C        -6.07837522875627    1.27159099159382    1.91738685615930
C        -6.46626901003175    2.39241300183406    1.18469547440584
H        -7.38507194114007    2.37019720965579    0.61861982187104
C        -5.68516752967986    3.54711511002344    1.15058524184399
C        -4.48527639623449    3.55978293133746    1.85971106972249
H        -3.85415642693427    4.43493948364262    1.83090121083950
C        -6.87360549706827    0.05643720055450    1.97817708696220
H        -6.35410370024054   -0.79998484068107    2.38737368412034
C        -8.15826781174752   -0.06263866896320    1.61885548571130
H        -8.69789807194739    0.80310672648984    1.25789403726834
C        -8.95459286413089   -1.27371820563499    1.70018833420624
C        -8.42564861371011   -2.53776645358190    1.97738049528216
H        -7.36817314552384   -2.67780653043220    2.13538740014242
C        -9.27927242599030   -3.62467124867358    2.03375263733079
H        -8.90016526499140   -4.61631005007890    2.24502961572258
C       -11.09434250398032   -2.35509505021103    1.57111846919039
H       -12.16500292250728   -2.32971113186587    1.41440894013997
C       -10.33523139234842   -1.20197824792138    1.48789526639251
H       -10.80428744200910   -0.25464502194705    1.26618301289921
C        -6.15275860762565    4.67998065434309    0.36954820285289
H        -6.98602573557409    4.45938700722252   -0.28437477320540
C        -5.67364771689387    5.92955478516613    0.42503099038390
H        -4.87183767162865    6.16843654492069    1.11135380116869
C        -6.15766744381088    7.06036741595179   -0.34583874972499
C        -7.07645969994458    6.95448992269418   -1.39421655362798
H        -7.47093126425324    5.99746007831481   -1.69626807390829
C        -7.47115074671453    8.10135093845968   -2.05912765127424
H        -8.18037540201749    8.05194429234546   -2.87536160372677
C        -6.15531860589604    9.42246729884801   -0.77730884192746
H        -5.81324274592495   10.42753569315035   -0.56663698033252
C        -5.69005042194800    8.34429640969099   -0.04668734225999
H        -4.97601699152134    8.49255874550739    0.75008631669576
C         1.52552802139420    4.23745768737047    9.27705265182132
H         1.66848609465309    4.74019062098375    8.33141474713969
C         0.95544285022731    4.88769895253192   10.35148221964901
H         0.64753070473623    5.91500518524865   10.24322345548540
C         0.79054782908485    4.20709773648163   11.56348250203624
C         1.24982179171047    2.88523624784934   11.59957792613601
H         1.16355712101702    2.30567865903114   12.50636674184682
C         1.80828919298670    2.31763866759509   10.47221542178477
H         2.16640488271682    1.29934556287340   10.46537834073485
C         0.17763703423431    4.78290076498190   12.74309671591807
H         0.19579297187007    4.14155589521940   13.61357229554113
C        -0.40847587450228    5.98737238162844   12.81019914875727
H        -0.43847326365185    6.60874551612808   11.92479169523494
C        -1.05888172798491    6.57305673635066   13.96806489310998
C        -1.72522661283758    7.78853677198218   13.80691051589699
H        -1.72768428759469    8.26240840407606   12.83495207213035
C        -2.39281789995881    8.40607115576028   14.86374037916709
C        -2.38669326509244    7.77267422454157   16.10519969312760
H        -2.91087569321492    8.21709487826059   16.93741244746807
C        -1.71767490214520    6.56475265154819   16.30436277948111
C        -1.05922880753486    5.97454060217302   15.22709258962803
H        -0.55423775771130    5.03360322718567   15.36864484044359
C        -3.07190369911798    9.66620489453256   14.61636920988643
H        -3.11342540054076    9.95204638182327   13.57358160182497
C        -3.60515540948721   10.47619711352616   15.54049635008060
H        -3.53484754021911   10.21757099440304   16.58875780352799
C        -4.27804079593297   11.73570608836170   15.28012585488673
C        -4.59012568641252   12.20531243164259   14.00066172157662
H        -4.34482362821337   11.63303144684673   13.12028447662201
C        -5.23476866222480   13.42203763773640   13.87070562174395
H        -5.49008241978658   13.81184778384774   12.89363701242062
C        -5.29503671746803   13.74704858856106   16.10900655266351
H        -5.59655307804032   14.39522072301146   16.92166964597140
C        -4.65470147850949   12.54632398824069   16.35612714859535
H        -4.44434893784021   12.23908256844173   17.36998584348660
C        -1.75343657829107    5.96467311703520   17.62792598769376
H        -2.46413580412435    6.41912120555072   18.30548735848559
C        -0.98578082044810    4.95721870730083   18.06318564932955
H        -0.23499291858419    4.53033089492242   17.41123376531526
C        -1.02956971674116    4.37078491105348   19.39058244457499
C        -2.03239494097285    4.63765628954196   20.32734249246145
H        -2.84925284675912    5.30265099469855   20.09629404634033
C        -1.97635893428660    4.02131934403361   21.56433787244592
H        -2.73850969053003    4.20646614672048   22.31037306098245
C        -0.07003279794072    2.91867520665219   21.04439133145614
H         0.69267253985303    2.22488734000586   21.37360383165505
C        -0.02778978331239    3.47529596393838   19.77896500268564
H         0.77356025797284    3.22530908175437   19.09932500637054
C         4.62540148829153    3.76497866751139    7.56957206251084
C         5.74159560441014    4.74654144563569    7.43570179860088
C         5.62408026262909    5.82673278983533    6.56872297375664
H         4.71567260283691    5.94145843402360    5.99749523394904
C         6.65873752242282    6.73440649893860    6.44128489663967
H         6.56992713921987    7.57378226289881    5.76823160613421
C         7.81013011385029    6.55021173906661    7.18634493843313
C         7.94701700161228    5.47933669322340    8.05198780333712
H         8.85355390881463    5.34852939135020    8.62324349099664
C         6.90708311376201    4.57699131729081    8.17433642226380
H         6.98263824636444    3.72969028410023    8.83824195907245
C         3.51918508163509   -0.15034139141403    7.40996826073946
C         3.97838071032260   -1.56262183839131    7.26372264765496
C         3.64870748478176   -2.50922089311683    8.22688371971423
H         3.05697043439277   -2.20531621254333    9.07668667974282
C         4.07749352291736   -3.81664618153298    8.09509521143897
H         3.82327632620683   -4.55330737974185    8.84216699311403
C         4.83890261566224   -4.16659475573254    6.99391502857374
C         5.17977784079805   -3.23778855745904    6.02645474706629
H         5.77760197213397   -3.52678766152031    5.17537487126942
C         4.74615537709322   -1.93265853152667    6.16542443525646
H         4.99716267091075   -1.18329794927107    5.43067828370276

