59
CSD_code = YIGGOL | q = 0 | S = 0 | Stoichiometry = C24H27Cl2N3P2Pt | MND = 4
Pt       -1.07417115497886   -0.36290481092928   -2.83988567141577
Cl       -0.11669368343673    1.03002325669511   -4.37223853311977
Cl       -1.93399802958628    1.37849319418303   -1.60393320383988
P        -2.16875996840616   -1.45869283706430   -1.14977173513003
P        -0.30821069610726   -2.09864995353389   -4.07897649556724
N        -3.00954404167813   -3.72287701258693    0.20688077580592
N        -2.58630471152069   -1.74546019651509    1.55342981545376
N        -4.56281909133644   -1.85500902529377    0.14420480416397
C        -2.21892558392359   -3.32047536788097   -0.93860635932447
H        -2.64870946431430   -3.77859728257263   -1.83565565216214
H        -1.19909307876791   -3.70478216046698   -0.81867571917381
C        -2.46998971805358   -3.18840396104911    1.44755313790776
H        -1.41682034701979   -3.47183904813640    1.52818993003935
H        -3.02460091026016   -3.63730582924252    2.27778656901056
C        -1.72480112734376   -1.06125258130045    0.61294433800772
H        -0.68588865395787   -1.35669074237069    0.80268856211458
H        -1.81158814819592    0.02066757943975    0.75647408251603
C        -4.39362127516390   -3.29506679817184    0.07459233519692
H        -4.96546571935141   -3.74539989287166    0.89228935601030
H        -4.78697482839044   -3.65810972695582   -0.87928541353703
C        -3.97936397281680   -1.36563298625066    1.38318454140724
H        -4.05688259023755   -0.27625718778772    1.40751938825820
H        -4.55029089807963   -1.78686406154673    2.21690930511597
C        -4.00278768928227   -1.18660974840920   -1.01135825406466
H        -4.18987414232930   -0.11020093176885   -0.93778364626119
H        -4.49060216025453   -1.56824409625998   -1.91616328655157
C        -1.71145431694521   -3.22940623082485   -4.34080387632448
C        -1.62768362800167   -4.61526952051773   -4.36388719540816
H        -0.67231818744462   -5.10344287881138   -4.23992393627803
C        -2.77767577098438   -5.37048007483468   -4.52596288170652
H        -2.71282955331943   -6.44849458565255   -4.53633067391597
C        -4.00817916796867   -4.75084453670990   -4.66934834410850
H        -4.90045612954563   -5.34647394690431   -4.79189175565548
C        -4.09641399599767   -3.36653152461927   -4.65037426607439
H        -5.05582901942964   -2.88313843922446   -4.76265553362936
C        -2.95268280781888   -2.60955001017367   -4.48131032593060
H        -2.99996800749578   -1.52179693543621   -4.45348144729139
C         0.98236643136744   -3.08581031768185   -3.26775671295400
C         1.27559990927027   -2.81111624045602   -1.93662549076099
H         0.74380124296951   -2.00119225753575   -1.44217097220705
C         2.24742031914771   -3.53682742195289   -1.27230631492398
H         2.47732825489732   -3.31817540483763   -0.23988932849107
C         2.93443253045860   -4.53863802968060   -1.93913735090741
H         3.69445382132209   -5.10637189952324   -1.42353009997756
C         2.66109512653498   -4.80200452534836   -3.27246678050346
H         3.21077890810724   -5.57186798101744   -3.79377353303297
C         1.69216678407611   -4.07599106765869   -3.94112359942784
H         1.49490866408826   -4.26076444853671   -4.98852149276440
C         0.37074264506358   -1.84965401426287   -5.74012522577269
C        -0.36072702875138   -2.11349688940177   -6.89147994516829
H        -1.35955138062180   -2.52107232591845   -6.81813366629787
C         0.19497333211987   -1.84899379758431   -8.13134563367159
H        -0.37297210656295   -2.05398795954982   -9.02707931831242
C         1.46896304642182   -1.31501974277068   -8.22455641923366
H         1.89450870424382   -1.10285816684085   -9.19417227743889
C         2.19560819773405   -1.04227122950389   -7.07539494940170
H         3.18436942381923   -0.61460026360025   -7.14901797154390
C         1.64960775805655   -1.30546596948747   -5.83489800256585
H         2.19829768603603   -1.08054915440808   -4.93033764917618

