89
CSD_code = YIGHOL | q = 0 | S = 0 | Stoichiometry = C45H40OP2Pt | MND = 4
Pt        2.81201306307686   16.07533522729697    4.46275179426696
P         1.44543982240299   16.41573788080323    6.23415227154745
P         3.98745457849282   15.73546829634195    2.56318896498823
O         4.63497707670725   14.30572900988239    5.52399623183677
C         3.46472320305687   14.28580914522446    5.18480501434891
C         2.64117984244548   13.00891990063478    5.36224650482734
C         3.44962372929614   11.86615218738231    5.96319415977522
C         2.68262613229321   18.10877648126587    3.94259231858187
C         3.52931103197498   18.81208694564069    4.80684447966198
C         3.76834198594262   20.16629694708432    4.67269735729079
C         3.15546880827808   20.87301851493617    3.65246863891077
C         2.31204331299758   20.20845651424614    2.78232003718179
C         2.08412294934240   18.84830945034402    2.92504074764069
C         1.21037492045335   18.11089543496321    6.85879859031117
C         0.53538857407576   19.00361224058410    6.02902886137217
C         0.40727300762756   20.32891400012348    6.39169445800609
C         0.95575291751628   20.77686345726334    7.58360455491320
C         1.62440717872503   19.89322732255248    8.41261420864428
C         1.75684853596772   18.56283194837524    8.05284040694082
C        -0.25210331337693   15.93437806308648    5.80611995229102
C        -1.36237778650367   16.33077636792577    6.54437210575333
C        -2.62565400163672   15.92052639232537    6.15739521119719
C        -2.78742328254148   15.12209279409352    5.03578124287787
C        -1.68404808467616   14.73260067778097    4.29297741932120
C        -0.41984243044897   15.13775378479056    4.67885601189090
C         1.82742510214555   15.47834889319104    7.74940180497625
C         0.90642078644490   14.71919886714466    8.45983642674453
C         1.31912826022189   13.99171659132482    9.56312892241045
C         2.64519609396738   14.01610967436701    9.96083621288367
C         3.56936145742028   14.76803671612196    9.25153895473631
C         3.16324009868506   15.49053365099395    8.14713580705258
C         5.19675446724590   17.07869340842392    2.43999288462023
C         6.01976592882922   17.22112256411817    3.55734778110719
C         6.90274775252871   18.27925875760323    3.63587029995896
C         6.95241005011933   19.21256203591525    2.61138192994084
C         6.11832635467250   19.08609505344054    1.51412255537119
C         5.23634002525087   18.02274990679759    1.42447554515072
C         3.01372438002481   15.74861642832273    1.03489791857166
C         3.60599022019966   15.59386311256662   -0.21404787377366
C         2.81773468370175   15.59133040342615   -1.35016493449233
C         1.44207966745381   15.73013201500353   -1.24395059058579
C         0.84854596012572   15.86584567893932    0.00072072109119
C         1.63413290989881   15.87362981521448    1.13898992598597
C         4.97242078522684   14.21966867664647    2.31522602954971
C         4.24927001891978   13.04368764599355    2.12846951363551
C         4.90088330690809   11.83402387298138    1.99980253964529
C         6.28538450298849   11.78701234221953    2.06148995122984
C         7.00882142218620   12.95270001472788    2.24262255268436
C         6.35837490991572   14.16830593015321    2.37045924369175
H         2.24746419503198   12.72444637211714    4.38234974039726
H         1.78376294389110   13.25045449845437    5.99968555212191
H         2.83869673412912   10.97118927414527    6.06390324694010
H         4.30475506856216   11.64310174312512    5.32849772973230
H         3.82114715828317   12.15167581535403    6.94487707875185
H         4.01941874160726   18.28112309169772    5.62629546282730
H         4.42974826285496   20.67394372189702    5.36316498807197
H         3.33512733407402   21.93345677992986    3.53791561583879
H         1.82888922678820   20.75162262536819    1.97962382449916
H         1.41666270851907   18.36694217495378    2.21894760940533
H         0.12453385311214   18.64848464875747    5.09369018916508
H        -0.11067397625142   21.01726278446930    5.74058193419129
H         0.86410022568248   21.81591396847600    7.86389462725389
H         2.05183307699372   20.24101420480697    9.34214994315369
H         2.28497638602237   17.87782936427905    8.70182947541638
H        -1.23342746459884   16.96466385714308    7.41148300645655
H        -3.48892297905935   16.22620271487530    6.73064367839753
H        -3.77707551012778   14.80773351686213    4.73836953030671
H        -1.81276308328911   14.11638774269277    3.41505892331494
H         0.46724425271716   14.84941086545899    4.11655606381165
H        -0.12788654603572   14.68813030942068    8.14687251786135
H         0.60170980031852   13.39797091698482   10.11117337612161
H         2.96140888727556   13.44139331005631   10.81897918973874
H         4.60634548308334   14.77880927563174    9.55306501921309
H         3.88071408369286   16.05844481702846    7.56660924829298
H         5.94238054871670   16.49609499461053    4.36133544482334
H         7.54240114599853   18.38947420301739    4.49960717010602
H         7.63361501884981   20.04841305953652    2.67634022847667
H         6.14622773022143   19.82542759841749    0.72684812511101
H         4.57108826564479   17.93776837379568    0.57700646860983
H         4.67863125103634   15.47183682219049   -0.28727388320390
H         3.27459653333188   15.47824158767121   -2.32269689500122
H         0.83190822610420   15.72697460895821   -2.13531296220088
H        -0.22431669101307   15.96518719853912    0.08104534676971
H         1.19822644988724   15.98007141927459    2.12811273951144
H         3.16782917271513   13.09459089095512    2.08457047181109
H         4.33361023813882   10.92540501765185    1.85795116407889
H         6.79806376240701   10.84063675784373    1.97055578630288
H         8.08762939525039   12.91654115265928    2.29002258518750
H         6.92981917250465   15.07431688052525    2.51240497172349

