93
CSD_code = YIGHUR | q = 0 | S = 0 | Stoichiometry = C49H40OP2Pt | MND = 4
Pt        7.82334863730429    1.78454727923548    4.74373675243947
P         8.80060380131809    2.84563970306710    2.98987648597041
P         7.30751873882781    0.64944511970179    6.62989673692185
C         7.73662193289466    3.51760274011643    5.82239415074551
O         8.40417673686486    3.85297606061900    6.78841029957197
C         6.70129329278051    4.44110311006756    5.25506473276623
C         5.72308892158062    3.93268472900396    4.40105061374916
C         4.82877496472770    4.78190202172450    3.77999132720261
C         4.91769905559499    6.15071423304528    3.98814820999105
C         5.88254611761482    6.66328059394479    4.83936159642206
C         6.76246525893001    5.81234542845635    5.48143842105336
C         7.76054567469390    0.07116964484718    3.52073968595804
C         6.68529509532155   -0.05477942360141    2.63393290210355
C         6.57025337247443   -1.11732870821494    1.75514688017131
C         7.54006554429455   -2.10378090390830    1.73508767281024
C         8.61019850755574   -2.01529542036074    2.60647780651839
C         8.71457900114445   -0.94649506083258    3.48206251416474
C         8.91941975921295    4.66729938408090    2.87454085440935
C         9.58700761813424    5.29128636552753    3.92683710892197
C         9.70297126363664    6.66595536626788    3.96548901947978
C         9.14448941026439    7.43559405017581    2.95695229193357
C         8.48957693113990    6.82138174714914    1.90441374392075
C         8.37899746805133    5.44201918859237    1.85682296406750
C         8.22077516025369    2.32613205393147    1.34919216755684
C         6.92973651170934    2.69710952555519    0.97598459021247
C         6.38893708008525    2.23978614689648   -0.21027805789190
C         7.12203031954349    1.38893757438566   -1.02180570004504
C         8.39219784266546    0.99251446795458   -0.63950762565551
C         8.94159391619273    1.45417355789797    0.54303034642624
C        10.56461625235881    2.43055894934235    3.04358690832261
C        11.46666442850439    2.89232094068991    2.08996155795578
C        12.80551487048496    2.56576088421239    2.20111303429747
C        13.24903289616246    1.79071580872877    3.26249826145487
C        12.35497008036826    1.34565574275700    4.22262612324802
C        11.01478532471838    1.66814192640363    4.11418026151911
C         8.92850231453795    0.01473294078919    7.13870136937834
C         9.90754501670575    0.96292296503539    7.44018167649005
C        11.19658820733708    0.55507211551880    7.72957763806708
C        11.52097884790713   -0.79295440176497    7.70291287412974
C        10.55595253989184   -1.73275390153986    7.38010996546379
C         9.26169872339752   -1.33406519687242    7.09281498372274
C         6.20180159014085   -0.79254924341086    6.76337835197301
C         5.47127794362987   -1.23806021106478    5.67112165865607
C         4.62909030354714   -2.32934365622254    5.80045632379040
C         4.51043889498133   -2.97388926665812    7.01956289995536
C         5.23313886095428   -2.52577427631669    8.11542793565599
C         6.07401733289240   -1.43703385196424    7.99147386687367
C         6.70914577120188    1.60778184760080    8.06292589879266
C         7.32534565024923    1.63943601605053    9.30598679530914
C         6.78840316342963    2.41426106737555   10.31962289177807
C         5.63987121267220    3.15504696405885   10.10087955901389
C         5.01738482188772    3.12010565157530    8.86296489851141
C         5.55069316694927    2.34923029191010    7.84974479171452
H         5.66693652872208    2.85130468700245    4.24055072076075
H         4.06449395773479    4.38569712783686    3.12536705131877
H         4.23083132321648    6.81695760896169    3.48608223641119
H         5.94569751162769    7.72973152225887    5.00231081287577
H         7.51701094185361    6.19269183889949    6.15438576021632
H         5.90679441963386    0.70576453440699    2.61751312189203
H         5.72513488396119   -1.17286095227312    1.08062086658473
H         7.46099041127324   -2.93421908698569    1.04663584564242
H         9.37296587327356   -2.78371844011473    2.60362820573153
H         9.56832936259733   -0.91601233484002    4.15113019077011
H        10.00868272018164    4.68544387339286    4.71862754444037
H        10.22276018161279    7.13971436880595    4.78516789381335
H         9.22333624087774    8.51224374103478    2.99058288783331
H         8.06121201527285    7.41798723369887    1.11192103135883
H         7.88006746237791    4.97490043683374    1.02045837278927
H         6.35119828468217    3.33472255453815    1.63334006633296
H         5.38973995973847    2.53466604459759   -0.49774587280486
H         6.69664028132702    1.02385727927700   -1.94505865256579
H         8.95544985512892    0.31172103728508   -1.26071676796301
H         9.92403362869093    1.12414962789224    0.84852147751214
H        11.11493489154598    3.50383456760804    1.26937328302107
H        13.50846708566025    2.91788261286241    1.46000259095858
H        14.29675501194060    1.53973418751728    3.34172020909305
H        12.69963700002203    0.75005011058665    5.05545947707826
H        10.29392468058829    1.34027329073451    4.86097005638231
H         9.64516704820103    2.01396153759712    7.44876591800488
H        11.95179045850976    1.28968073572674    7.96945331999922
H        12.52905292122140   -1.11129128355429    7.92702667089372
H        10.81313603047315   -2.78162182495155    7.34614776982907
H         8.51248755957633   -2.06630184532095    6.82629353076507
H         5.57924439967111   -0.73722214019680    4.71988228242053
H         4.06664835700267   -2.67639737377490    4.94622612684665
H         3.85417297945420   -3.82597309597898    7.12001585453455
H         5.13848513756344   -3.02781636423126    9.06746788718488
H         6.63706757777342   -1.08119085838728    8.84393424078367
H         8.22819130230490    1.07093997680475    9.48065891547294
H         7.27451903848925    2.44423199877309   11.28416652453597
H         5.23170631947655    3.76509658758982   10.89331121534717
H         4.12351456925037    3.70087018937487    8.68760391174159
H         5.08032563774475    2.32117560727544    6.87379840417642

