82
CSD_code = YIGHED | q = 0 | S = 0 | Stoichiometry = C44H35AuClP | MND = 2
Au        7.00198754075161   19.80778517312699    9.06318814480888
P         7.13984604403687   17.62421415271334    9.54736890166770
Cl        6.78568534870912   21.99961146125486    8.54421304932127
C         2.97570862974180   17.83473787069596   12.54259313715334
C         3.56194086870559   18.10870569496243   13.82053681106656
C         1.92822235601089   19.90324210027325   14.12046063536804
H         1.46936851205086   20.63175880536375   14.77265100225720
C         6.07871397435504   16.63909319281403   16.18998242907838
C         5.86642496564658   17.52376473107365   12.08008456477911
H         5.12139920553954   18.20758391140308   11.70240482881071
C         8.72126261452676   16.74886423750497    9.52215687933607
C         9.28821989566816   15.67175896668521   16.18171475503317
H         9.66753691603443   16.23427159477074   15.32630638572246
H         9.12706576157598   16.39054042708701   16.98756042531896
C         4.77645764413294   17.52095436361575   14.30166526868870
C         7.95554291128093   16.33804620107261   11.74770985630031
C         6.89942719409350   16.32451647966279   13.93032690266035
C        10.17800789251465   15.40953901527690   10.89368827407627
H        10.41034545485268   14.91964846694922   11.82769944750262
C         8.99452250928588   16.12012578138075   10.75181038880841
C         5.82356766465581   17.09514298565407   13.41826946314683
C         1.69115319324772   18.67629116996050   10.63799092999404
H         1.10000325040294   19.47625695788360   10.21647255765721
C         6.93052858746833   15.99919233713834   15.32651510011197
C         7.94625844145228   15.95116137936252   13.06439292202120
H         8.78456332944273   15.38972328005405   13.44198131126426
C         3.78954123315903   14.26085703201793   11.74177047060479
H         4.17069901356450   13.37951018229758   12.23671026340740
C         6.88641523136686   17.12804127395150   11.25922091365437
C         2.03813189522678   17.59999505142782    9.89327077673980
H         1.75820958863479   17.52747678720176    8.85233724187806
C         7.95462658185816   15.00634444161989   15.81412480131498
H         8.12700412296559   14.25543088921475   15.04087770638551
H         7.57192363135130   14.47075938586428   16.68320159009762
C         5.02122242204557   17.46816023838571   15.68732755856984
C         1.62104279701603   19.85302270997731   12.79803345125157
H         0.94983944228749   20.57363111021384   12.35465706873531
C         2.10334301344076   18.79317237711714   11.99295631777589
C         6.17095927098482   16.42853831209521   17.67870918176999
H         6.05282280168888   17.38031260590737   18.19824413385388
H         7.15076496022086   16.04627567203827   17.95604990299064
C         3.41930011278256   14.19394977575898   10.39708852846690
H         3.53430463617592   13.26892206768146    9.85190000214062
C         2.90679665499659   19.03518561810838   14.65930695826173
C        10.32207451961166   14.64120360124057   16.61774467016812
H         9.96962534511082   14.08776837114651   17.48576365612116
H        11.25900340237747   15.12738504839476   16.87895438871075
H        10.51705763525506   13.92928999099134   15.81791283884736
C         3.25550482092393   19.08309987192390   16.02780489283027
H         2.72356001443137   19.76967333822107   16.67037820344170
C         5.18667616090278   15.22280105510759   19.66901628508136
H         6.16257062049071   14.82650644410475   19.94258010520677
H         4.42680557889737   14.51699280340327   19.99596120251018
H         5.03725488507581   16.15861147354661   20.20361218273756
C         4.20033064755155   18.25083322573458   16.53983883295995
H         4.36991657612549   18.25132656142856   17.60342051163017
C         5.09872031151136   15.44452644464144   18.16467636498134
H         5.22735757726338   14.49143695332656   17.64577874754059
H         4.10844870288295   15.82471061468746   17.90608284108866
C         2.70578408405085   16.49769309754643   10.49262647086831
C         2.86752119328231   15.29152977734119    9.79236075739052
H         2.52219168848438   15.23858871826983    8.77008413079545
C         3.15036482937295   16.59338652263559   11.83342247912190
C         3.65039959860598   15.43019042017552   12.44393415113202
H         3.89322581275502   15.44389321210395   13.49512545248660
C         6.07698821345958   16.54779111603544    8.54270208608881
C         6.19675194909284   15.16260810650455    8.60925720185379
H         6.88365474543819   14.71391814344347    9.31352775892198
C         5.44375406428649   14.37147058919596    7.76395948071071
H         5.54613404480952   13.29694970625748    7.80185278028654
C         4.56650338294866   14.95358725788295    6.86159352818627
H         3.98744918543002   14.32998841459711    6.19630113284658
C         4.43112250665575   16.33109508038639    6.81120051151114
H         3.74409942611579   16.78379784838888    6.11150709920368
C         5.18786361623107   17.13126736146354    7.64847312682115
H         5.10483609592702   18.21033805721601    7.60857821657265
C        11.06265836637882   15.33363034873346    9.83084929939574
H        11.98394735210852   14.78155539211563    9.94418524163450
C        10.78510361966179   15.96039502511844    8.62470217185574
H        11.48993236539603   15.89438696894110    7.80970607372673
C         9.60937321802830   16.67635465173202    8.46400543223621
H         9.38512572702430   17.17570211750571    7.53178845264221

