89
CSD_code = YIGKAA | q = 0 | S = 0 | Stoichiometry = C45H38O3P2Pt | MND = 4
Pt        3.60641997480898    1.26460966326649    2.04105642777182
P         3.82707119054687    1.76748468281004   -0.15551032772847
P         3.38552799108330    0.54735274069575    4.18021323324237
C         2.11093376505465    2.61593649891352    2.42179203130420
C         2.79486902163606    3.95953907777485    2.16664054279388
C         2.57821156254417    6.19133604506069    1.50063862774542
C         5.38843564638059    0.20857343417539    1.86489196362749
C         6.46475908477483    0.87843605267618    2.44905538669594
C         7.74729211574850    0.36314433845084    2.42532260823572
C         7.99116029819888   -0.85011485281940    1.80556430294470
C         6.94397839347846   -1.53126733664748    1.21427043102938
C         5.66081103351831   -1.00772668305784    1.24437158048807
C         3.03102843517390    3.22859162727272   -0.90581236242378
C         3.70986879859783    4.20594962035582   -1.62228422051148
C         3.01398626890787    5.28037877774781   -2.15148101019030
C         1.64487126245086    5.38334572185038   -1.97250441782242
C         0.96283341799412    4.40629344139190   -1.26341349810489
C         1.65331082287025    3.33554677192121   -0.73129601469627
C         5.55862235047964    1.89531687514825   -0.68255220408316
C         6.31043091166195    2.89970441481753   -0.07420043795089
C         7.66333533959968    3.00278466266756   -0.33047936143418
C         8.27773748840310    2.09536494118334   -1.17958579166776
C         7.53698893097883    1.08510733455186   -1.76816466086787
C         6.17959318150075    0.97870215037340   -1.52019860556421
C         3.08793220527314    0.45666463252921   -1.16998372254205
C         3.03204968975693    0.53282594303603   -2.55766951610879
C         2.43780285561354   -0.48806570901933   -3.27659779630434
C         1.89258844722461   -1.57909144182315   -2.61682725500655
C         1.93524754475142   -1.65081624499232   -1.23366533287658
C         2.53044894504485   -0.63279365397269   -0.51112701554156
C         3.02455235706269    1.87903094162019    5.36151626306295
C         3.79174736297620    3.03425261943103    5.22529987757757
C         3.56657760593164    4.11923781529666    6.04973418991672
C         2.56700608707011    4.06026829035703    7.00855333512332
C         1.79624283267361    2.91741831974607    7.13827154990358
C         2.02009971679682    1.82511589438623    6.31768707611503
C         2.03079140540400   -0.64165204613284    4.37030559803632
C         1.07308694984537   -0.70561126446624    3.36481262769488
C         0.01597801500345   -1.59133236035406    3.47099011913415
C        -0.08641784882396   -2.41553089845536    4.57976287777607
C         0.86925920591144   -2.35659895462264    5.58262379079395
C         1.92865797652376   -1.47369150740345    5.48150233770758
C         4.79323023962360   -0.32800464604407    4.93046958246754
C         5.08740356572313   -1.59566809530226    4.43352602180979
C         6.20491461474542   -2.27369385961725    4.87554372029895
C         7.04155251257482   -1.69064690967574    5.81476277865286
C         6.75088863903796   -0.43345940589781    6.31471412878874
C         5.63171422841205    0.25148552899764    5.87317438688610
O         1.02754318566520    2.57463694274802    2.97797514937702
O         4.01168424619499    4.05972829161183    2.12934400336920
O         1.97360375533503    4.96345380506012    1.87579982532775
H         1.77813426818059    6.83055549092886    1.13530955597761
H         3.06887794993780    6.64731234013083    2.36376544574241
H         3.32150931176055    6.02029252021685    0.71786088203056
H         6.29616970303968    1.83624528637317    2.93632325347160
H         8.55950527340135    0.90601571813934    2.89063869806919
H         8.99166718960572   -1.25970358206038    1.78226749816320
H         7.12542983643631   -2.47794628374127    0.72169711391019
H         4.86534173243731   -1.57026861815543    0.76816940502175
H         4.77878739539381    4.12934025027075   -1.76428317847284
H         3.54583821846513    6.04123328478807   -2.70475708525577
H         1.10891657246627    6.22586754774219   -2.38428868339276
H        -0.10432640725983    4.48431977752712   -1.11939771409435
H         1.13246507972985    2.57342284215441   -0.16384215964250
H         5.82181663480334    3.57925919043740    0.61245990392112
H         8.24490541589076    3.78165040433656    0.14087405003937
H         9.33801989162377    2.16891330970087   -1.37253033475711
H         8.01980819863719    0.36884567464654   -2.41699527693130
H         5.60779915054245    0.17779164948479   -1.96686208336161
H         3.45174959950805    1.39119701056718   -3.06535452611131
H         2.39611645741344   -0.43378864176806   -4.35480855423711
H         1.42895880648907   -2.37256357926791   -3.18445331240187
H         1.50322077568852   -2.49821729636466   -0.72149277232603
H         2.57628441084352   -0.66071447065257    0.57673424188887
H         4.55070930004943    3.07566545591151    4.45234385520813
H         4.16133077795834    5.01457648873344    5.93939518279321
H         2.38196577710087    4.91123233569532    7.64782522562424
H         1.00938813177541    2.87872145484580    7.87751238635439
H         1.40620273585200    0.94093304992554    6.41034423715441
H         1.16265019147061   -0.04224441771368    2.51205360760843
H        -0.72953803594603   -1.63906688478995    2.69089921959399
H        -0.91156840487852   -3.10754471347282    4.66480217160862
H         0.78704584934030   -3.00142093900380    6.44571254721227
H         2.68199520533827   -1.42968873203158    6.25701846483615
H         4.43432932916202   -2.03594415366197    3.69197151781868
H         6.43200922871195   -3.25326712021196    4.48185074915650
H         7.92172826574885   -2.21645407321683    6.15424398858711
H         7.40191719698977    0.02081025935036    7.04770256829955
H         5.41127535846377    1.23628013657010    6.26125708665734

