88
CSD_code = YIGLAB | q = 0 | S = 0 | Stoichiometry = C42H40O3P2Pt | MND = 4
Pt        3.55820778735886    1.64896303441029    4.10099062608370
P         5.78108806171611    1.77971519965045    3.61036029843280
P         1.41523427492377    1.77910593202108    4.84396975858188
O         3.85155845637959    2.68261887857157    6.12642532020791
O         4.78925189903222    0.68755729476341    6.23953479355011
O         3.25221269728322    0.95158889613062    1.33670406163487
C         4.46837179355682    1.77252133110064    6.74474050145035
C         4.81208073880046    2.07218009277451    8.20405870265936
C         5.73119643263071    1.02397797268942    8.80886770348023
C         3.26137446625537    0.55493811384175    2.47336205551486
C         3.06450866748023   -0.90795585486071    2.85019380995088
C         3.41919705243647   -1.84984073304536    1.70427118693026
C         6.88462179450446    2.37655224406075    4.92732240253339
C         6.61871894840254    3.65350651915107    5.41511944725002
C         7.37971258179071    4.17862431041764    6.44127411726589
C         8.41452999646827    3.43444724535148    6.98586792421659
C         8.68802658069379    2.16909467947784    6.49525841889734
C         7.92664243962036    1.63697043805342    5.46859703672735
C         6.50519984783578    0.21350929785614    3.05156040652072
C         6.45897336571854   -0.86164125019617    3.93959832937411
C         6.93016913881643   -2.10123441931051    3.54956729033219
C         7.43502595655147   -2.28160847349572    2.27089784833428
C         7.45890934767257   -1.22145187753037    1.37993613302822
C         6.99207152344771    0.02414882015660    1.76375187579504
C         6.18709218862631    2.98331698355772    2.30733313725368
C         7.50690958576604    3.30415141740875    2.00392836676942
C         7.78014745813371    4.24861899952849    1.03258565524899
C         6.74102110091752    4.88082892394794    0.36626596256879
C         5.42663705325660    4.56984259500653    0.67225444657587
C         5.14853706743662    3.62395332134022    1.64352410880743
C         1.31468195247769    1.28259680261098    6.58680481088002
C         0.91123844642632    2.12689386801974    7.61202148399946
C         0.95039318645588    1.68159078814175    8.92259352212238
C         1.40001667102105    0.40440876053232    9.21425867308008
C         1.81608776607731   -0.43566436929474    8.19292234629087
C         1.77656169221690    0.00212001073992    6.88358859496026
C         0.84101984995590    3.49892785530860    4.77973941420826
C        -0.48119355203928    3.85222198555153    5.03085405700969
C        -0.86332293430111    5.17900416167878    4.95140365700222
C         0.06565644889796    6.15236964981308    4.61714627810072
C         1.38097038218243    5.80130797145464    4.35900094623320
C         1.76853915348019    4.47612831954944    4.43687698242042
C         0.00774084038692    0.90783016828351    4.07737258356320
C        -0.92876933616893    0.17462063092499    4.79512369116929
C        -1.97721852326706   -0.44171671856803    4.13320911976924
C        -2.09676296745433   -0.32878901420292    2.75841300293692
C        -1.16395091116998    0.40215523738531    2.03839785909400
C        -0.11481775152180    1.01606253720825    2.69454667633874
H         3.86644589354542    2.11974556642648    8.75116288373722
H         5.26708474555237    3.06432362302191    8.24229427813112
H         6.68523898019345    1.01683293125880    8.28625165238377
H         5.28310257320164    0.03840678686532    8.70935534739938
H         5.90781850836807    1.22937230926916    9.86300293459520
H         2.00792166863567   -1.02584961172090    3.11618235402348
H         3.66567430564164   -1.13258473068300    3.73760913757522
H         2.85778864209291   -1.57543935632712    0.81463899457906
H         3.18648605606236   -2.87924232298812    1.96688626983045
H         4.47980367456084   -1.77820438985140    1.47496455213072
H         5.79916204087439    4.22183991034194    4.99394186997028
H         7.16380022359226    5.16626657978102    6.82277123636818
H         9.00522825044290    3.83969490931040    7.79455757983977
H         9.49606167042464    1.58870889946157    6.91766982018773
H         8.14062829270314    0.64583490339990    5.09572979026749
H         6.04319507410110   -0.70786705284236    4.92637115060944
H         6.89873920615244   -2.93183878836307    4.23977008887726
H         7.80036063696550   -3.25127338971817    1.96535701114304
H         7.83750597622914   -1.36559586933826    0.37834158204522
H         6.99772633362602    0.84485797498116    1.06124823290329
H         8.31274097122228    2.81149026348178    2.53224948921087
H         8.80465472886740    4.49563185420514    0.79415117280879
H         6.95987125060006    5.61929418967188   -0.39124393651434
H         4.61878610773294    5.06461451552380    0.15368654162330
H         4.12533507675730    3.36181488240742    1.89120127512759
H         0.58358998367997    3.13213688529604    7.38841724961689
H         0.63884501821276    2.33984444530987    9.72113212772466
H         1.43850078669173    0.06739907306594   10.23998173413614
H         2.18247483905945   -1.42572794248141    8.42122162483426
H         2.11908735718461   -0.63559923821636    6.07794052026899
H        -1.20495741389484    3.08832898489043    5.28259710533008
H        -1.88894086312951    5.45616791301244    5.14831337522836
H        -0.23967610673880    7.18676873839235    4.55548591926159
H         2.10124162670060    6.56171247229638    4.09484362556465
H         2.79541786610848    4.17720639505051    4.24617322378170
H        -0.83705315566424    0.08428121830308    5.86888067562142
H        -2.70342504993661   -1.01197731003602    4.69424177605155
H        -2.91529353263935   -0.81320761693287    2.24685366410842
H        -1.25322705968260    0.48770846344422    0.96573480378944
H         0.62805609896836    1.57855435335900    2.14363584058913

