121
CSD_code = YIGNOU | q = 0 | S = 0 | Stoichiometry = C42H72N3ScSi3 | MND = 4
Sc        3.58541692075579    6.32736991874764   26.21480629283522
C         6.30947434435059    7.97219407895694   24.06108355882369
H         7.08279595675973    7.35352773767404   23.61586437388171
H         6.41506061260639    8.96811457912678   23.64337256592867
H         5.34881444197015    7.58144836402951   23.74473892990344
C         8.25941739555929    8.08472810073249   26.41078846115427
H         8.50776705125820    9.00813644562689   26.92194286084003
H         8.88890820485027    8.02924516854210   25.52819396741948
H         8.53145270255586    7.26313167733048   27.06567071698871
C         6.32021653841363    5.89560479853824   27.56267669420386
C         6.80588654663954    4.68069210478727   27.03176975682556
C         6.43212599436187    4.25355099585617   25.62824462030024
H         5.57462141982506    4.87724521324573   25.29949347713471
C         7.61483881517565    4.50717094358120   24.68855925040707
H         7.94202087065411    5.54009905271542   24.76635020053303
H         7.34148567784762    4.30017091226704   23.65504565722954
H         8.45088239762484    3.86427283357068   24.95883475756530
C         6.01070996352397    2.78364448367227   25.55154517756188
H         6.83787558535360    2.12526993649601   25.80787107088410
H         5.69373569298588    2.54119611974706   24.53978030661181
H         5.18156981499222    2.57933300487389   26.22412270361266
C         7.67236837474544    3.89701060037830   27.77791943796267
H         8.07420340003112    2.98917228021609   27.35253004352538
C         8.04949171498636    4.26200128906384   29.05594283993769
H         8.73248325672905    3.64602273829341   29.62162439505229
C         7.54121393079012    5.42593558453358   29.59895498787617
H         7.82601643534420    5.70771638934014   30.60206619792517
C         6.69370028457286    6.25122824593901   28.87571054355659
C         6.16489485353111    7.51077210160100   29.51787060302254
H         5.61431744504887    8.06265148296963   28.75298471685467
C         7.28736034868004    8.40694826443616   30.04300732886588
H         7.79845062629128    7.94601732148066   30.88517622055994
H         6.87686669641031    9.35823906066137   30.37498356933759
H         8.01526219834499    8.59957114649628   29.26035089895722
C         5.19327436528708    7.15827415275037   30.64744243863334
H         4.32634186311296    6.63907832625250   30.24473906332172
H         4.84672306096349    8.06173272585195   31.14399172453731
H         5.67399625245193    6.52233444234826   31.38849363349278
C         0.13221702570939    9.28265345886472   28.51399466064514
H        -0.34320569874984    9.29432107289427   27.53705946078986
H         0.25520506665272   10.31131509964302   28.83873014706286
H        -0.55594646658535    8.80983551076769   29.20654358902601
C         3.19903167963744    9.62950371113054   28.68377195193079
H         4.03601108967472    9.40642130631955   28.02607469162666
H         3.56758848455713    9.61325338542668   29.70330504811832
H         2.87955153143403   10.64637674491310   28.47805395610591
C         1.02407604673068    7.51227243910259   26.02479351286266
C         1.24505110202895    8.42199707801345   24.96146338432692
C         2.45419836691542    9.33514941696136   24.96073696756818
H         3.22262894634292    8.89534684373917   25.63207276227812
C         3.08233825538576    9.49922383919626   23.57547021022287
H         3.25635139403459    8.52735532336523   23.12081186982889
H         4.03621844689952   10.01412148973433   23.66537920355379
H         2.44367759385932   10.08404489494169   22.91651769013802
C         2.04532678421013   10.71017185449918   25.49870077104126
H         1.33030478475239   11.17504959457942   24.82131300608932
H         2.91569968754003   11.35746334861211   25.58343098537617
H         1.57924481787819   10.61643506533090   26.47420257658578
C         0.30948079148039    8.53184822179990   23.94434983922849
H         0.47805532122015    9.22892620643961   23.13714898347920
C        -0.85157426976509    7.78115928271724   23.94704058327375
H        -1.56643743542182    7.87694043227293   23.14282627973206
C        -1.09738301454231    6.92964563186018   25.00609337870370
H        -2.02005065467713    6.36741506279745   25.02768407729443
C        -0.19351316169654    6.79610899866025   26.04945729158378
C        -0.54187207755107    5.89513257408437   27.21161996360099
H         0.21454943367691    6.06329878215415   27.98336746999469
C        -1.90912789776197    6.23791860431357   27.80823202409064
H        -1.97635868503759    7.30019416133982   28.02366351662820
H        -2.05789618075751    5.68624266787520   28.73432686611851
H        -2.71431957537327    5.97447096413357   27.12633509108574
C        -0.50770234912908    4.42296928844782   26.79232582922001
H        -1.25184658018054    4.22846572029440   26.02129348845426
H        -0.72707229898240    3.77714166929961   27.64084613626284
H         0.47462477268143    4.16345968554486   26.40473060307803
C         1.00062933666778    4.83768583198743   23.19670482069897
H         0.70317443601746    4.26623787823444   22.31887641350046
H         1.15996945768147    5.86882192538756   22.88812322846828
H         0.16460239499934    4.84602719282463   23.89182444138937
C         3.93386680014122    3.97856566060206   22.63729272181556
H         4.76866787061132    4.64105774249624   22.85255531706793
H         3.54259410864229    4.26156483779584   21.66091102451950
H         4.32403155512919    2.96581135702642   22.55713637457343
C         2.51855310720813    2.57992790757398   26.29358658130294
C         2.00827404975283    1.40174257692471   25.69892202409120
C         1.71455777145732    1.24453553732780   24.22628725396716
H         2.06935647798798    2.12396827095290   23.68861343844204
C         0.20857734309531    1.15527461973970   23.98197368376074
H        -0.00136395942657    1.09650603311609   22.91585397625543
H        -0.28647917371405    2.03323991702954   24.38894219650647
H        -0.20777205674700    0.27416087073354   24.46328729121424
C         2.45511514665936    0.05134910530462   23.62023643919956
H         3.51738737414887    0.11664333012683   23.84377890920008
H         2.32496654897170    0.04081251872770   22.53975009265422
H         2.08060760077746   -0.88928957863358   24.01385104418663
C         1.72664887443759    0.29868407894713   26.49214430681195
H         1.31912795432846   -0.58760349043611   26.03013348080448
C         1.94490528883662    0.29921002415560   27.85308811384861
H         1.71401926137159   -0.57032735076897   28.44883781120166
C         2.46688514533118    1.43490720171447   28.43391928394142
H         2.64682619896796    1.44241914594686   29.49741266311123
C         2.75865938828199    2.56532335759170   27.68529803793627
C         3.31738851203530    3.75405762666586   28.43830151803650
H         3.58247475676813    4.57208825228777   27.70761643215655
C         4.58196916419198    3.37157571128946   29.21177456530449
H         4.34098590267635    2.69777881041734   30.03041836825101
H         5.05156073301039    4.25786429457499   29.62874270820510
H         5.30329528506588    2.87963524131097   28.56576448140485
C         2.26871916846333    4.30077177261940   29.41013186461636
H         2.65268819409883    5.17413287317125   29.93138493853644
H         1.36615321849568    4.58393928590100   28.87870945014415
H         2.00989355590382    3.54605816552304   30.14979441242411
N         5.54818761343677    6.76772599579072   26.76832407146036
N         1.97307426347987    7.35879230487141   27.05969303806503
N         2.78800673619370    3.75307908016176   25.58596015280749
Si        6.40044035548352    8.03487295541017   25.97194169870181
H         5.81225367737512    9.35003581726141   26.38324882718327
Si        1.79787863068031    8.34336349631671   28.46128244086387
H         1.82903611323744    7.44352110025927   29.64965527351646
Si        2.59205372113776    4.15681965057271   23.99535506120148
H         3.46198496564564    6.42042900811437   24.53674781496184

