57
CSD_code = YIGPIN | q = 0 | S = 0 | Stoichiometry = C24H26N2O4Pd | MND = 4
Pd        6.25246024569201   -0.66284462776318    7.87303306141640
O         5.99440785372427    1.09672065086097    6.68121760167257
O         9.23853887988192   -1.51446748201063    8.30725278667942
O         5.71443880256532   -3.88614060318938    8.53914162904854
O         6.10876952875613   -3.50922687006524   10.71458104730265
N         7.31651317716903    0.51662771645645    8.92697925812287
N         4.91021583143004   -1.85961279781649    6.74471154105194
C         6.73376858807806    2.02444568797229    7.21186632436460
C         6.86763885619691    3.31424710776219    6.69434419079897
C         7.67675591802627    4.25496006483929    7.32693381781098
C         8.37504672492560    3.98505256371733    8.48286751680725
C         8.28037276081822    2.71098478535615    9.06413553164046
C         7.46048202838968    1.75274240348653    8.41910202167730
C         8.93193310564506    2.28167487080567   10.24306244977728
C         8.75174022377958    1.00929219978474   10.72079983504021
C         7.91585647565150    0.11522474762919   10.02636532821209
C         7.60112641737149   -1.29819593076835   10.42474657922080
C         7.11669666611059   -2.06223675096458    9.17857677172475
C         8.18804636585559   -2.12531833142817    8.14661093672061
C         8.00971235509000   -2.99536068737906    6.90632572236456
C         6.26265205286280   -3.21190508708720    9.41014647060270
C         5.32117844534663   -4.65687967518434   11.01709703655774
C         5.10608220712734   -4.70367556955923   12.51825843159481
C         3.53491837134143   -1.38992013358087    7.02076217664082
C         2.50145584552094   -2.33636472459709    6.41134080582025
C         3.42922826089732   -1.23162081209369    8.52778203932172
C         3.89187862168572   -0.03725487209059    9.10045335906561
C         3.95334990835566    0.09722014670907   10.48059493865853
C         3.52441119035394   -0.93689169009627   11.29943089339116
C         3.01377724334859   -2.09207321040696   10.73743576704136
C         2.98324039270019   -2.24762623773101    9.35926187053352
H         5.01218434762876   -2.82015354604173    7.10393244561752
H         5.07254344158369   -1.87007039970026    5.73615676664537
H         6.34070232571673    3.57149145728533    5.78810047997988
H         7.75603058196035    5.23852622091301    6.88490489967144
H         8.99400592356801    4.73783097032734    8.94612150137125
H         9.57909489108732    2.97380519789155   10.76306224942852
H         9.25073101576634    0.67571060156116   11.61746002397067
H         6.81409308448266   -1.29775305134700   11.18485896086175
H         8.48674603368055   -1.77912085327428   10.85209444698834
H         7.30490494765082   -3.80488603273455    7.07203223754362
H         8.98443626417501   -3.39640382978427    6.63415236529488
H         7.66785417476541   -2.36136962623765    6.07714475014192
H         5.85003781496172   -5.55105791372010   10.66590153255754
H         4.37189004883410   -4.59042814801017   10.47499277270814
H         4.50228711236623   -5.56912480630498   12.77591128686560
H         6.06236546259681   -4.77205573006508   13.02932648867763
H         4.60082123600854   -3.80104303710485   12.85095949034705
H         3.43334991303897   -0.39687655155980    6.56032258511948
H         1.49930938584551   -2.05688424970860    6.72487202516537
H         2.54641063544041   -2.28910135676339    5.32494889933989
H         2.69239176688931   -3.36341351262794    6.71493048564597
H         4.11253080850896    0.82026510430244    8.46379259220121
H         4.31399330311856    1.01916357151119   10.91525154904242
H         3.56977888554407   -0.83059644521189   12.37341463345788
H         2.64231647184920   -2.88327118570182   11.37202615738252
H         2.60909677823728   -3.16935969947026    8.94141063327664

