79
CSD_code = YIGTAJ | q = 0 | S = 0 | Stoichiometry = C26H50N2Ti | MND = 4
Ti        2.44658790235857    1.01312590941767    3.52196483466054
N         1.86438163341758   -0.55115635926311    2.70657556653650
N         1.35696997466173    1.82764737047140    4.78595385854033
C         0.01647779892713    2.17420860600408    4.37239966324242
C        -1.07526545298166    1.70548885139028    5.36023561504364
C        -2.46550463464476    1.93030373955448    4.77436350691478
C        -2.67659171635062    3.40813031558287    4.45873519916545
C        -1.59319948507045    3.91143407572443    3.50904972858760
C        -0.20445852192316    3.67716158154150    4.09790696107610
C         1.06198032433070   -1.59888643121666    3.29628859076222
C        -0.45307710458486   -1.38954864081350    3.08987976356421
C        -1.25707421117817   -2.50417465300911    3.75356168170280
C        -0.95732092331975   -2.57012912940179    5.24738386911161
C         0.53609551473633   -2.77747615976587    5.47915763228811
C         1.34902704680411   -1.67380613385621    4.80600158526037
C         1.84599468887601    2.43298335456139    6.00679285573830
C         2.44166032301821    1.34980008353321    6.92634843920966
C         3.05041667659345    1.94639715909692    8.19235664166710
C         3.51629208309837    4.08175436937341    6.98852984317906
C         4.12211579688440    2.97153137276865    7.83967232690716
C         2.91194947898538    3.50928997429242    5.70929873794772
C         3.48976692599021   -2.03959514400993    1.49164173167656
C         2.50565729931102   -0.85086208364370    1.44577656510939
C         1.52087912862093   -1.07877320582645    0.28115303274583
C         2.27866317539575   -1.17881422523909   -1.03969540243322
C         3.29454655450843   -2.31701928529133   -0.99231823052418
C         4.25826716779987   -2.13106724420144    0.17677302022603
C         4.43793353974395    0.54971028444517    4.00633360603582
C         2.66860540137252    2.49890627957366    2.05991774822051
H        -0.14259041563465    1.64785081782918    3.41043910023259
H        -0.92531710351657    0.64792557841293    5.59151727618323
H        -0.98916239138285    2.26379544336967    6.29532631288863
H        -2.57508417151208    1.34469251166119    3.85782316847392
H        -3.22642070382893    1.58884340975558    5.48071373643337
H        -3.66232890118615    3.55711375517686    4.01252491844951
H        -2.64018534436069    3.98432430072926    5.38655604747499
H        -1.67335899998863    3.38355892445517    2.55522876570753
H        -1.73854995498733    4.97673174325476    3.31415285302345
H        -0.10770940449305    4.24130834287162    5.02862511463311
H         0.56026737188539    4.02818979708056    3.40093966278496
H         1.31749065711109   -2.57604818395045    2.85596319436576
H        -0.73186149341711   -0.42721937721376    3.52217286899485
H        -0.67776657800023   -1.35734617383692    2.02194070591406
H        -2.32499732960651   -2.33482562183669    3.59613062520899
H        -1.00124333639351   -3.46173050607617    3.29223238234086
H        -1.27357365744885   -1.63813934695801    5.72143278869488
H        -1.52243476177441   -3.38497261791842    5.70566764515051
H         0.74778854751337   -2.79421059223300    6.55093526525275
H         0.83104275763093   -3.74639627081033    5.06725095563448
H         2.42001150392036   -1.85756369414033    4.95167307138505
H         1.10443318926371   -0.69495564284112    5.24151561862629
H         1.02707154497541    2.92177558833870    6.55816923857379
H         1.65038353614881    0.64448941846325    7.19826026373567
H         3.20799571222212    0.80423374530508    6.36132763354429
H         2.26685310738511    2.43299639905122    8.77949280534851
H         3.47972457299546    1.15077298068832    8.80565932712468
H         2.73787738812311    4.59077854907205    7.56356730827271
H         4.28046376399733    4.82110264627415    6.73754948998634
H         4.55428440955223    3.39091627784023    8.75095567935875
H         4.92289991851870    2.48114415091531    7.28124665002470
H         3.69550758204568    3.05372037881515    5.09179781915770
H         2.45183197722813    4.31296093917359    5.12904240818805
H         4.17743570747191   -1.90122803483715    2.32985268526835
H         2.94917409238533   -2.97588728451834    1.64702071297082
H         3.10144273658930    0.04084654235075    1.18818432945603
H         0.96109671867951   -2.00238057276696    0.44673126842296
H         0.81222550227220   -0.24507721208651    0.24953254054559
H         1.57675283098075   -1.34339541686855   -1.86096550945364
H         2.79882916469496   -0.23644907855565   -1.22885492353462
H         2.76679528124489   -3.26692826329469   -0.87647318592183
H         3.85122774403359   -2.35778905289808   -1.93125685063477
H         4.83654132295429   -1.21544389415981    0.02901772332042
H         4.96098874273781   -2.96723013530541    0.21312525085463
H         4.53150398184352   -0.38171339799912    4.58678111427130
H         4.99318321707164    0.39319446915714    3.06903782542507
H         4.98911981338573    1.32497268109509    4.56022356900226
H         2.72866360471868    3.50712697798385    2.48994171009470
H         3.58493913013013    2.35551373539148    1.46679883210402
H         1.81856103051518    2.48738563472499    1.35903323446125

