91
CSD_code = YIGWUG | q = 1 | S = 0 | Stoichiometry = C34H53BrOPRu(1+) | MND = 10
Ru        1.49335893786030    1.42830352568389    4.32408232498146
Br        2.58184718132232    2.26802274151694    6.42350785542905
C         2.17029859531811   -0.63039660200952    5.03478366689815
C         0.87068833382873   -0.31166764231361    5.61468286469217
C        -0.06184854971397   -0.18162190800582    4.55360433383884
C         0.64397223209297   -0.37913262454298    3.31800789038578
C         2.01482340079504   -0.68272581143289    3.62294853770575
C         3.34373811153916   -1.09505005710479    5.83052901493543
C         0.53763399619693   -0.40575646350145    7.06534034880574
C        -1.53926384885147   -0.05218313535539    4.71944382009655
C        -0.00658868577278   -0.59153332214197    1.98990304937000
C         3.02160089568154   -1.19212081579316    2.64280179111185
C         1.88971513014055    4.04755230807564    4.05372576200674
C         0.51284751078651    3.53302045520598    4.30419532915244
C         0.14816883105210    2.73983928966350    3.20809012577196
C         1.31917873168691    2.43358819428997    2.44166753600072
C         2.43524788765759    3.11026634684231    3.02690008170390
C        -0.38317260565835    4.15621421151567    5.31829187712637
O         2.45976082762345    4.98944094355223    4.55742040625315
P         3.99710318639340    3.54668142235163    2.24932850745290
C         3.99820807405510    5.37650181262449    1.98909715277206
C         2.72603314397250    5.92927779158773    1.34539938626450
C         2.77362098837025    7.45537076121083    1.41743074854712
C         4.00981119804435    7.98310194011967    0.69458909990589
C         5.28188126597219    7.38840472534581    1.29201070944610
C         5.23853725895249    5.86100023241677    1.24014974748343
C         5.41456005002154    3.10964670345185    3.35026846262997
C         5.50014419472127    4.00376797348969    4.58912530138929
C         6.68534972630084    3.57661449610572    5.45281793961297
C         6.55329582476937    2.11456275957727    5.86052482781537
C         6.49212489979586    1.23159537808614    4.61988018243673
C         5.31030532096101    1.63337521663739    3.74062473388975
C         4.12248580218669    2.51949580864429    0.70817066516870
C         5.55298707030263    2.32922650531106    0.19919606619344
C         5.55179843492730    1.34429371734577   -0.97164246086149
C         4.64533289353395    1.82809629129835   -2.09896052191997
C         3.22903786557237    2.06130585307034   -1.58269569288379
C         3.25195753554404    3.06174894881667   -0.42804816134585
H         4.22811623168214   -1.20883497178372    5.20978320843302
H         3.57129748391971   -0.40196041121847    6.64008762098864
H         3.10490815600106   -2.06117614418551    6.27711096488376
H         1.38317437139027   -0.11722458991946    7.68611365605933
H        -0.31050903042594    0.22716815544578    7.31859661289030
H         0.27471134306682   -1.43882207073516    7.30105590620783
H        -1.78843362941840    0.65836359607717    5.50598714345884
H        -2.02654964226167    0.25544866747232    3.79765848027049
H        -1.94855319690946   -1.02121812822570    5.01017088557470
H        -0.83119019948537    0.09842647960656    1.82113447287966
H         0.70272819666740   -0.49710200107175    1.17078838951829
H        -0.41313358760778   -1.60432300869909    1.96153533984381
H         2.90978335318756   -0.72202195479166    1.66766233482911
H         4.03695571757184   -1.03316093108186    2.99614568467223
H         2.87341966442509   -2.26572310978203    2.51298000128894
H        -0.86386579108327    2.46517847466950    2.93917164632100
H         1.30267775114913    1.96109527861689    1.46785249015875
H         0.09952258123191    4.16652166364451    6.29547140520448
H        -1.33452808097467    3.63274480973397    5.38586890102394
H        -0.56614729100716    5.19626639147918    5.04281335889062
H         4.02938657456032    5.76508619552323    3.01598473718221
H         1.84201852145381    5.56285217682247    1.87318185655524
H         2.65101857660199    5.62985381759521    0.29987567170710
H         2.79652169662398    7.76605124855864    2.46340035277403
H         1.87254894184323    7.87008800707823    0.96365061421331
H         3.94921652952731    7.72572580785219   -0.36547601786904
H         4.04358918163920    9.06992920503749    0.76974666317966
H         6.15406136183960    7.74784249032006    0.74429459582986
H         5.38124266301648    7.71172725154222    2.32985848255805
H         5.19772072835290    5.54238557814802    0.19609016105712
H         6.14717991702935    5.45198926114805    1.68821779219918
H         6.32130377661182    3.26120866065072    2.74900351924068
H         4.58574088081827    3.92843613073216    5.17713638748494
H         5.63123310572270    5.04699003216043    4.29882872906111
H         7.61627557802667    3.72129373648116    4.89837058081330
H         6.72065329450673    4.20649014750715    6.34094359313407
H         5.64333685446003    1.98764910880939    6.44796225357166
H         7.40136038896023    1.82276601860207    6.47971140478087
H         7.41978841395037    1.33339641289777    4.05106597286361
H         6.39405026941121    0.18421980726387    4.90972841177338
H         5.28717265050752    1.00499884270756    2.84613749914662
H         4.38050034721365    1.47440261078470    4.29808747932664
H         3.73386712202591    1.53632980538509    1.01249595980917
H         6.20246778165944    1.93883656462947    0.98314441534448
H         5.96066255202156    3.28485553880033   -0.13398240055520
H         5.20859541386924    0.36730594763667   -0.62214595013208
H         6.57033979549476    1.22357024683384   -1.34163083575868
H         4.63117124490286    1.09187723773428   -2.90275258333186
H         5.03912374312749    2.75997465698811   -2.50898084869005
H         2.59735303933685    2.44396785201170   -2.38526920986129
H         2.80123760083070    1.11355569115318   -1.24559763020956
H         3.67828495593458    3.99667099052711   -0.79438509861752
H         2.23541044941477    3.26639875250074   -0.08447837245892

