37
CSD_code = YIGWOA | q = 0 | S = 0 | Stoichiometry = C15H18Br2ORu | MND = 10
Ru        2.49172396582455    6.00670097834496    3.14752129893497
Br        2.61553857198894    3.95332230166494    4.59498142104744
Br        5.75835929152379    4.77822944582336    1.76479753752508
C         1.21286164770559    7.14186118016945    1.73077805796273
C         0.40827786712141    6.92537636815539    2.90247623034429
C         0.25238143396475    5.52846225031692    3.07074249368298
C         0.95427747421348    4.86313888477743    1.97714683432346
C         1.51453741316584    5.86357345235288    1.14406175949487
C         1.38747816258295    8.46679302397305    1.05891652429085
C        -0.28006237607074    7.98632267074066    3.70167621428476
C        -0.67410491457838    4.83838361188000    4.01631774604883
C         0.84168297886427    3.40865678409091    1.65607956307808
C         2.17681494591576    5.61218158927862   -0.17372871791094
C         4.87042629192121    5.94137788830063    4.36370219351214
C         4.70973701885942    5.89334102854736    2.88002925702023
C         4.17989881767630    7.12914557823489    2.44398283150854
C         3.63601191586763    7.79075259965335    3.59175324478192
C         3.83594069859090    6.96260498057151    4.71053270777716
O         5.62267984269678    5.32580278131474    5.07234958873748
H         4.31483930754134    7.55441870579851    1.45766750900642
H         3.25009074910119    8.80275463562443    3.60755943315634
H         3.64535404428948    7.24195644735431    5.73974252347714
H         2.24392831936088    8.47367931592088    0.38848356834814
H         1.50505180899340    9.27350552277452    1.77975892820957
H         0.49613186571401    8.67889222501944    0.46504843800375
H         0.24558687704218    8.93643960818806    3.64156145060544
H        -0.35631336981475    7.69972634502978    4.74859835770740
H        -1.29041546610645    8.13256049428896    3.31507802976119
H        -0.95238442750620    5.48845647583455    4.84184934667899
H        -0.21562077985250    3.93827612457971    4.42336708315652
H        -1.57793727266008    4.54708282777162    3.47873509190224
H         0.90771243833836    2.80429749106856    2.55906026622615
H         1.62916798890778    3.09791321252132    0.97364187136533
H        -0.12442891651843    3.21827814014397    1.18533357358349
H         2.94207155977543    4.84074105519073   -0.08828613449299
H         2.64070626133158    6.51270275549395   -0.56810943852711
H         1.43309796422880    5.26739121920510   -0.89350668461302

