96
CSD_code = YIHBUO | q = 0 | S = 0 | Stoichiometry = C42H48N2OOsP2 | MND = 6
Os        4.02378856066539    4.85714437185044    6.63440736513364
H         3.68029653569453    3.57930788361457    5.74291368222945
P         2.28336248698599    4.40557575613738    8.02786492393158
P         2.92825307940723    6.28998016125069    5.25380520977523
O         4.92846018441100    6.44490682473713    7.82465535336448
H         4.62411387487139    7.34065192786425    7.67828013225534
N         5.49204986615647    3.84012803425866    7.91025791090798
H         5.68047000000916    4.69314505742565    8.44935514567858
H         5.15001087438174    3.13188348582554    8.55961845538726
N         6.02238193910632    4.90190026106974    5.51267205182589
H         5.89389487502138    4.28895259333307    4.70806628468954
H         6.18072302966611    5.84093880981734    5.14788338352798
C         6.73909362229507    3.37121277704088    7.29189881487239
C         7.20391661606645    4.48399578700386    6.29047657288404
C         7.77443149506037    3.09314438035418    8.39186493350205
H         7.45977440281780    2.22941101206218    8.97607673051810
H         7.86935167644482    3.93825872499407    9.06906400354688
H         8.75149787649143    2.87297280903483    7.97006648870370
C         6.42948652962594    2.05017705270206    6.57841970750407
H         5.99156460093563    1.35287783676999    7.29077558344531
H         7.32991458536723    1.59717614365494    6.17425380571885
H         5.70546459181126    2.20545739404231    5.78326890293107
C         7.70942587743398    5.73632852999792    7.01473400400066
H         8.08237316554014    6.45121266543795    6.28147666116523
H         8.51817112608808    5.51660196773894    7.70378823440892
H         6.87482121100121    6.20703488289532    7.54542502634432
C         8.29401653116350    3.98567996193804    5.33160284860300
H         8.60822189753667    4.80247561879681    4.68302174928917
H         7.93345884628909    3.17667846677068    4.70092407789407
H         9.16704571162887    3.63863305705841    5.87798908697438
C         1.81283610004139    5.45895191010530    9.46545661305117
C         2.80365316183485    6.26463876429590   10.01894469929601
H         3.77858187591629    6.28593681491915    9.54188029848858
C         2.52875347234129    7.06002076215082   11.11692570880728
H         3.30187481607388    7.68789519778910   11.53720872450147
C         1.26101175255833    7.05421260241999   11.67487105441020
H         1.04155234907342    7.67584276707006   12.53145990981432
C         0.27094384096326    6.25116081028209   11.13088707147032
H        -0.71837354348931    6.24461006345093   11.56673316272280
C         0.54180763194726    5.45411156551272   10.03321764690020
H        -0.23163018586450    4.82248310917605    9.61910466977938
C         2.52158559521956    2.81397043865713    8.93316690486376
C         2.95143204349816    1.71582263334717    8.18760558142187
H         3.11297206554556    1.84973550891834    7.12695126617466
C         3.18539132144577    0.49519118139608    8.79244616033598
H         3.51000842374748   -0.34880363411877    8.19972828625938
C         3.00583084657762    0.35368762463764   10.15981841996223
H         3.18977991740972   -0.59791836987836   10.63729276567789
C         2.59460239376197    1.44088079498373   10.91104839255997
H         2.45907733241280    1.33870321151254   11.97841078611148
C         2.35340224443129    2.66336784225223   10.30531782415570
H         2.03404267797081    3.49895156936410   10.91024500642274
C         0.62355294094222    4.14617496454945    7.29072167714646
C        -0.11187021650452    5.27661085295467    6.93779580625566
H         0.28742171169713    6.25892374833512    7.15228369699549
C        -1.34730350193396    5.15384972036248    6.33330651509309
H        -1.91103949012582    6.03882124036538    6.07585787169358
C        -1.85836937420112    3.89774270394620    6.05042882108261
H        -2.82284074337114    3.79973566873976    5.57392180629932
C        -1.12684240186227    2.77028230675328    6.38030762635766
H        -1.52097620093094    1.78820397037714    6.16002367599148
C         0.10605548726784    2.89088668277112    6.99770048844013
H         0.66240950004600    2.00352574988136    7.25959654197425
C         2.50626840628974    7.99645663374760    5.80099584886706
C         2.17235079031057    8.18032109905775    7.13670866958957
H         2.19277372043216    7.32436311438147    7.79691657261090
C         1.84699367180979    9.43343996472433    7.62317300457591
H         1.59194450647859    9.55549262883829    8.66638778025398
C         1.85644362365566   10.52533982478242    6.77159115414428
H         1.60752506816687   11.50839772719338    7.14450275003763
C         2.19343144577546   10.35514929926081    5.43795076540375
H         2.20432493784849   11.20638033148208    4.77156790522413
C         2.51758976019726    9.10107158767859    4.95214329356865
H         2.78194960240421    8.98055576238660    3.91006502810074
C         1.39413513678894    5.85963030126493    4.32707941838259
C         1.19303698371531    4.51387902701246    4.03592251584539
H         1.91568292351741    3.79870730789756    4.40274805008304
C         0.08613121175445    4.10544828035828    3.31729179354061
H        -0.05913856858186    3.05736917616548    3.09861756869876
C        -0.83991466472669    5.03970016459003    2.88326908199641
H        -1.70840301378254    4.72489005317935    2.32278477948073
C        -0.65252252773463    6.37890132631723    3.17756585482501
H        -1.37604516919357    7.11087067830765    2.84664179044278
C         0.45696825895622    6.79021720760206    3.89576957248925
H         0.58127015932297    7.83844199623795    4.12435660933567
C         4.02593823106950    6.70425673265391    3.84129843739609
C         3.93563830040934    6.05664054372247    2.61404610709299
H         3.11844984495051    5.37316944617254    2.43316099509154
C         4.87928717698020    6.29182252546003    1.62876588092366
H         4.79451232749206    5.79216643089081    0.67424701841503
C         5.93059665695867    7.16442341498181    1.85905990277245
H         6.66379081939141    7.34743603272170    1.08705748402614
C         6.03921641722452    7.80255566691372    3.08526941892339
H         6.85918960520231    8.48291348894694    3.27026440377341
C         5.09833038741728    7.56876738138594    4.07112317730737
H         5.17758445504559    8.06596983091002    5.03008475521796

