78
CSD_code = YIHCAU | q = 0 | S = 0 | Stoichiometry = C31H38Cl2N2O4Ru | MND = 6
Ru        6.87142099369492    2.05090155062345   12.92471064186807
Cl       10.63848065725313    2.25508612827586   19.15334074549468
Cl       11.18425364264315    0.22167352725927   14.21094362661350
O         5.59282919507905   -0.65655271519887   12.72154902101804
O         7.86057236135953    3.82522153676290   13.24327973130266
O         8.56066801976068    1.17197979176334   13.81139911629886
O         8.09971165164351    1.91235074900554   10.18709596355647
N         6.09633355476477    2.40755384287297   14.74113250101007
N         5.13025587372751    3.20034222812673   12.30557595774703
C         7.64022451787578    1.93709770359035   11.22986490832140
C         6.06647362958613    0.38655017936785   12.77383677305080
C         8.70331693945465    2.33732371309050   17.28249390529164
C         6.67528190903407    5.73974476052789   10.41588417180398
C         8.92176669906529    1.44046042677234   15.00109909180612
C         4.13316330238042    2.82966095999023   13.33747217089803
C         6.69843053952794    4.99363950065016   11.57791554292760
C         3.80566276303489    2.17083133945227   15.70758801811749
C        10.24102704104929    1.03879963439777   15.39588500018399
C         5.43428049486128    4.65144081847358   12.32052418026373
C         6.80347761127206    2.52932031810952   15.80987069797178
C        10.68440688366527    3.18649625339569   12.05605689982346
C         9.12151531854078    5.05772144469447   11.60300278233368
C         2.80862764364721    3.60272883968029   13.33441766150034
C         7.85464145664171    6.14083227066109    9.80584900518430
C         4.73933876143772    2.92527541453631   14.74937857279324
C         8.14478603412084    2.09578543848696   16.00961845906981
C        10.43645714032160    5.03892292075178   13.73163917949861
C        10.45817449763641    4.69320070286705   12.23677482298576
C         7.79643016505317    6.92887148717203    8.50540519340829
C         9.04752946079778    5.80183754575412   10.43706351217299
C        10.76281909185935    1.28234219591008   16.63592058006667
C         9.97795413170334    1.94560888202653   17.58557316136420
C         1.84647588421386    2.91626409526021   14.30561488699771
C         7.91403963323155    4.58815949489294   12.17438323041156
C         9.18316222181374    7.27831357161950    7.95947216578870
C         4.65394559990513    2.85181883147699   10.96248769628029
C         7.06763105413676    6.08867344149736    7.44646426318848
C         7.03350699706968    8.24033297780430    8.74107934705068
C         2.43487432451925    2.84413232673547   15.71237449496591
C        11.64244901538730    5.43303921067304   11.60516460891565
H         8.10743601128677    2.84223022152562   18.02806442095883
H         5.71630928599187    6.01447487602306    9.99711102793869
H         9.96845084187921    6.13050582105052    9.99161338103391
H        11.76654531521183    0.97035329027742   16.87614738829017
H         4.22093140478664    2.17105353731573   16.71652260029624
H         3.71929007569980    1.13104971097424   15.38423262855205
H         2.96633618592362    4.63673120577946   13.64597555424318
H         2.36303451372976    3.60972237313725   12.33926555162276
H         1.63731738760613    1.90577328205262   13.94824334871561
H         0.90219925631813    3.46202739218167   14.33136961850858
H         1.75808736485791    2.29125227052905   16.36490297210972
H         2.53315859777630    3.85482491358043   16.11548535441247
H         3.89640085220584    1.77291056765940   13.14944271761972
H         4.76176689971203    3.97791463994437   15.07405718591713
H         9.88018420551239    2.61745499709916   12.51951990078232
H        11.62417940227307    2.88706492353687   12.51588100400222
H        10.71943787083336    2.93321741839932   10.99756718910399
H         9.62632522955968    4.51502479110969   14.23016059871197
H        10.29638850782593    6.10999884378948   13.86852979035994
H        11.37504743052577    4.74691073890153   14.19896837013901
H         9.73095796040756    7.90749545158878    8.65694218691529
H         9.07765191313577    7.82619688452475    7.02479854497133
H         9.76133096690424    6.37951538535439    7.75900368275115
H         5.42041668709308    3.12401904595435   10.23617709895220
H         3.73956174845271    3.39953797142022   10.71112850306796
H         4.45960344267321    1.78095254062175   10.89190481365961
H         7.59022831176200    5.14692811990193    7.29219153403528
H         7.03108743426401    6.62362306091801    6.49949365705404
H         6.04801657665867    5.86639810534362    7.75044627919215
H         6.01223284886400    8.05231982170095    9.06151726550296
H         7.00026642431861    8.82732817648386    7.82529493578586
H         7.52875345340944    8.82788938722065    9.51122806799163
H        12.54990695589587    5.18171312092240   12.15091476343305
H        11.50444606446501    6.51111964416435   11.65729906866435
H        11.78867246656576    5.13985486217232   10.56803728217005
H         4.58987754213518    5.20596709317993   11.89271808146168
H         5.57268705077438    4.95812699806588   13.36267581628460
H         6.34677879992978    3.00353517578867   16.68326552543807

