32
CSD_code = YIHJIL | q = 0 | S = 0 | Stoichiometry = C12H11NNiO7 | MND = 6
Ni        3.20386533400305    5.44156965511247    8.59241484247956
O         2.29199892781606    3.09456665533297    7.47437108737644
O         2.38747865661023    7.08723676416624    8.68894797025914
O         4.45072103546070    4.04891270847040    8.52594910061823
O         2.12287672806168    8.94103213990764    7.47842120020652
O         1.41868899332747    4.64925707252639    9.94709112185610
H         0.89938929718776    4.13820084222438    9.31696942501977
H         0.99325963433629    5.51143246683102   10.03901744866647
O         4.09448539858356    5.77468852134945   10.46582648403613
H         4.85539614116380    5.17655866304291   10.44400084513609
H         3.48376090504907    5.45363137299288   11.13996687652144
N         2.74609274484956    5.59539531688064    6.73405957849077
O         5.31660131171463    2.06739629113756    8.98783219937039
C         2.77299392134259    4.64865623302198    5.77376183607950
C         2.63666185351732    3.29006104488784    6.16808867274574
C         2.90782414477963    4.99029974512404    4.40300740991614
C         2.39344312961627    7.76710264685153    7.59889822805905
C         3.02398219382617    3.94775845570506    3.46347768905200
H         3.14454227818996    4.19511563194824    2.42009278934478
C         2.67654839164931    6.87479577212492    6.39386772439445
C         2.73061911901230    7.29732423685265    5.05789239982960
H         2.66220497485548    8.35508771838920    4.85834132438089
C         4.40854399563333    2.78124882619848    8.61829134223719
C         2.90339038486161    6.36332210181580    4.07107470541210
H         3.01035184990716    6.65469323040035    3.03638263440968
C         3.04847414852802    2.13753215626388    8.20325362765043
H         3.23415876184773    1.22083971329149    7.64119078571050
H         2.47545461661240    1.90461830316548    9.10299615356370
C         2.76806843700458    2.30321907223496    5.21885058714814
H         2.68715974704182    1.26239860551331    5.49097894945802
C         2.97782055269980    2.64265120163439    3.87535059608277
H         3.07644239091469    1.84689683458733    3.15283436448899

