25
CSD_code = YIHJUV | q = 0 | S = 0 | Stoichiometry = C6H9Cl2N5O2Zn | MND = 4
Zn        3.36314337722657    6.43647672456370    3.93440200462288
Cl        3.54130763591616    5.17390406911263    2.11010312116934
Cl        4.92217665851749    7.58005465099318    4.92175576118042
O         1.31997291817008    7.10610415501172    3.63436839251163
O         0.34962237963367    4.60501994525585    3.69502636365574
N         0.67501038028365    2.37258658826508    3.88060676275582
N         0.79276328541186    0.05850776112149    4.04779873176288
N         2.43397036922415    1.31146160227000    5.03067809214652
N         3.05754294842536    4.80174958668212    5.23749482914962
N         4.00542456847703    2.92036125688870    5.93088326535229
C         1.33984337225237    1.26159428805344    4.32119583805369
C         2.87815732569280    2.56217800444601    5.26293380578497
C         2.27945865487119    3.74823898799598    4.83938002054005
C         1.05813936070733    3.69956086690075    4.10159882207716
C         4.06844048363050    4.27298621667510    5.87726832601630
C         4.95575298465223    2.02355628087410    6.52834108236939
H        -0.17647565976896    2.26129006075650    3.34212163900259
H         0.84553037550650    6.24288893470706    3.70035595975031
H         1.35087189069199   -0.74760648315911    4.27027098342180
H         0.09617689372877   -0.03248319905785    3.32948966323246
H         1.16377462348515    7.40797073983838    2.73327141623980
H         4.86317909258786    4.84704798008934    6.31384958190966
H         4.60617211710505    1.00732281029403    6.35747150870198
H         5.03236578225341    2.21117807711582    7.60007058397594
H         5.93767818132219    2.15595009429983    6.07266344461689

