49
CSD_code = YIHMAD | q = 0 | S = 0 | Stoichiometry = C24H18N4O2Zn | MND = 4
Zn        0.96237231669533    0.96237198315191   -0.00000176712545
O         2.77925914576161    0.91948297692425   -0.77896606197705
N         1.69443281729196   -0.12932116272814    1.47723604750939
N        -0.48834761555006    0.21465480505786    1.55282573108979
C         2.90692651643078   -0.47399083705684    1.79671084181747
C         4.00313880273927   -0.22237099638515    0.95703461876289
C         5.28364398730095   -0.66076722840128    1.37323395784661
C         6.40058993114860   -0.44926867857143    0.62213739613989
C         6.28453690567451    0.23049127782712   -0.60436436639142
C         5.07533544274810    0.67553784990644   -1.04404118761389
C         3.86651462467808    0.48073930551349   -0.30119839341387
C        -1.68336013500508    0.18276764709544    2.10688919152072
C        -1.91409703296266   -0.36104854860132    3.36143706115253
C        -0.83389037544479   -0.89269723140888    4.05505534486611
C         0.42237386533390   -0.86167571205337    3.48466686790523
C         0.56295348446322   -0.28571666846474    2.21602746625788
H         3.11109034905867   -0.98092793257932    2.74641768352050
H        -2.48889946214051    0.61028626450243    1.52483531655448
H        -2.90516739339847   -0.36728756054087    3.78574061299024
H        -0.97348632111573   -1.32447398994832    5.03562397695593
H         1.27693812678826   -1.26259533139184    4.00665853864427
H         5.35649053587761   -1.18057090020757    2.31974994154082
H         7.36722417567630   -0.79369602060648    0.95690284500311
H         7.17207514563936    0.39872439468007   -1.19862661753660
H         4.98249688363886    1.20049491267036   -1.98330538754618
O         0.91944867095184    2.77925041095396    0.77898060563244
N        -0.12930696634815    1.69443649318867   -1.47724725367232
C         0.48062648725522    3.86649575826252    0.30125443624288
C        -0.47395228912960    2.90693273349143   -1.79673280384752
C        -0.28569836944009    0.56295667737632   -2.21603944711881
C        -0.22238663083902    4.00313685878243   -0.95702908034461
C         0.67557786214134    5.07534088076105    1.04401722363625
H        -0.98094750474654    3.11109009183321   -2.74641017410254
N         0.21462026900112   -0.48835315690484   -1.55281105806533
C        -0.86165784858672    0.42237691800139   -3.48467817708498
C        -0.66076276337589    5.28364649573846   -1.37323939088852
C         0.23055912356125    6.28454893491044    0.60432499467666
H         1.20052086628196    4.98249980882803    1.98328884568181
C         0.18265488789770   -1.68338078026763   -2.10683605351795
C        -0.89267357424296   -0.83388746857870   -4.05506803138910
H        -1.26261344333064    1.27693419870559   -4.00665317817155
C        -0.44925935115071    6.40059300342037   -0.62214510479487
H        -1.18056962738663    5.35649349743049   -2.31975400683766
H         0.39867978808388    7.17207066105875    1.19864298262536
C        -0.36109021672008   -1.91410676673941   -3.36141720603494
H         0.61037097314559   -2.48888053511187   -1.52487454263461
H        -1.32449110479224   -0.97349067804559   -5.03561770192550
H        -0.79371818018181    7.36722091047577   -0.95689230048292
H        -0.36727577937555   -2.90516756595555   -3.78574323605553

