123
CSD_code = YIHMOU | q = 0 | S = 0 | Stoichiometry = C42H70BN7Si2Ti | MND = 5
Ti       12.20131948322464    5.21155443707144   10.36437423746393
N        12.24899183165626    3.50633396462541   10.16336936713730
N        13.64249916089500    1.40998983566626    9.83248750499182
N        11.47495422801502    1.29194508440044    9.07499739636730
N        13.96829719526785    5.88571900218620   11.27835896673765
N        13.05636572125890    6.25237314222533    8.88887783434290
N        11.45657496206489    5.57608482557849   12.18938999362812
N        10.48816049630505    5.72193321191330    9.33240910455233
B        12.40663479539636    2.19483756267238    9.76842527488731
C        13.44543181124311    0.21843758715258    9.15741827366865
C        12.17782182732206    0.14878113717588    8.71696650894962
C        14.81406492233937    1.70705617133646   10.53662927059642
C        16.00061485796206    2.02253694071930    9.86050317546312
C        17.12571313239383    2.36329350821691   10.59976338807981
C        17.08233664390863    2.41582756892730   11.98030304575823
C        15.91739573852723    2.07470755054868   12.64363597222877
C        14.78476510437238    1.68783401396619   11.94232975001718
C        16.06419269041210    2.00156211962992    8.35148533474963
C        16.38257086738240    3.39539448775447    7.80914903518352
C        17.08950117347279    0.97471922780151    7.86410150531219
C        13.56601915965191    1.17268904439072   12.67242304468865
C        12.79517363898074    2.29924588178454   13.36184124330475
C        13.94911058826959    0.08284530923325   13.67829803838659
C        10.08114664481528    1.36821709428454    8.90917670315748
C         9.24912432942300    1.33181644249894   10.04708712076886
C         7.87903934219159    1.45091579111602    9.88066126640213
C         7.31876610415513    1.56712180604262    8.62133959812171
C         8.13131856645177    1.54100351579609    7.50716651277153
C         9.51214489370722    1.44844117181166    7.62789600674425
C         9.85843537004444    1.06772707117753   11.40682321425634
C         8.93501801248538    1.35752219325841   12.58804743245219
C        10.28847638614315   -0.40462399275662   11.47979485738305
C        10.36144144282465    1.39643109542133    6.37714715314110
C         9.99774586455755    2.50102361947406    5.38144750152941
C        10.20505014186628    0.03306872603295    5.69444569429162
C        13.72676651260044    7.29662103625820   10.98300266737090
C        13.55656654156628    7.47269969791110    9.46220226762287
C        13.87397956304658    5.62231983365329   12.70672506920573
C        12.44427833418407    5.88221288828979   13.20615312854234
C        15.26852368287765    5.46375146500038   10.77543536631557
C        11.78233454632233    7.04980913847747    6.23164564507262
C        12.94799107649204    4.20794907607042    6.82223216188186
C        14.78322431166335    6.72895517795992    6.45640657759326
C         8.60816358581407    4.84801056211492   11.51303935989491
C         9.22998480518289    7.47355091580092   13.00785299203204
C         9.58765168063502    4.82060919651475   14.44582947331413
C        10.04747727672429    6.97588833278174    9.40099759659359
C         8.95705286702424    7.43234851832821    8.68187664202078
C         8.27564579187025    6.54043844068190    7.86374596097440
C         8.73384234147238    5.23282508484277    7.79346637611694
C         9.84662305674578    4.86903639254237    8.53541424649038
Si       13.13525284518214    6.06264155230597    7.19902658924150
Si        9.84109887314193    5.65446190702629   12.72944835221631
H        14.59327045085378    6.24549718070946   13.27069300593034
H        14.13320396783427    4.57026808622227   12.85454529779757
H        12.28973782141676    5.27595138495500   14.11191583977569
H        12.36115887124626    6.93592946149320   13.53837765464563
H         7.76910747716351    4.43075872483795   12.05896123523656
H         8.19323549672393    5.56995615592239   10.81707856653166
H         9.08109178889129    4.05124577916757   10.94530845369150
H         9.93109809763610    8.03533810945370   13.62005723001996
H         8.27425877656137    7.49074666426547   13.52187664826206
H         9.10183713924803    8.01642962112395   12.07433127335081
H        10.04712521351279    3.83771003612021   14.47701951388830
H         8.53530199073326    4.69968478077335   14.68199100480401
H        10.02873777291217    5.41611465646813   15.23964933463658
H        14.55379905359925    7.92432464115195   11.36233131868868
H        12.80275243122660    7.59742784734228   11.48776938673428
H        14.52634805410783    7.75701437872526    9.01758845107293
H        12.88357959906287    8.33420417113840    9.27522294117741
H        13.83649254731452    3.79303689476460    6.36147143270285
H        12.75432145520987    3.67000959476134    7.74916914096980
H        12.12583728223528    4.03909850878874    6.13957700216574
H        11.99287668418235    7.06542421184222    5.16694182915620
H        11.73077838895451    8.08359019141523    6.56494800927778
H        10.79451928371697    6.61550714410410    6.36085302421737
H        14.80304450629799    7.81494519118243    6.46059589879265
H        14.90012532785115    6.40996143188054    5.42608162230107
H        15.65456339278011    6.38058472247276    7.00339520203771
H        16.08129852820765    6.00937728391815   11.28112017511101
H        15.39159153447812    4.39355566805283   10.94684841231410
H        15.32034395316637    5.65012857021542    9.70388271750763
H        10.24273010117448    3.85918661314362    8.51474768601210
H         8.22849601897567    4.49898750529961    7.18554217240607
H         7.41065751118952    6.85827147097826    7.30125033259969
H         8.63645592317380    8.45955657865510    8.76651466888262
H        10.58567537309755    7.64300999682718   10.06756071518982
H        10.73893728955059    1.71079278775837   11.49914031618236
H        10.72029893758921   -0.62244021632225   12.45451572935444
H        11.02421674009737   -0.64266688176034   10.71739060351707
H         9.42342408576642   -1.05110595978029   11.33617677738833
H         8.09436161702977    0.66604562022728   12.61020692985523
H         9.49008056897399    1.22874510665902   13.51516988729141
H         8.56425638249906    2.37574269345567   12.55740892673034
H         7.22712601059629    1.43323879975339   10.73877327212838
H         6.24706302693145    1.65113470612892    8.51103099471891
H         7.68215988420615    1.58678578174623    6.52598191639194
H        11.40796493520344    1.52906966970893    6.66566543357711
H         9.01003290908521    2.33901559424315    4.95558212129012
H        10.71441930445679    2.50699807012352    4.56241010038223
H        10.01289046208171    3.47653610066543    5.86149078478415
H        10.47113919495703   -0.77582049363809    6.36963939983136
H         9.17440545524737   -0.11790162729756    5.37937550651351
H        10.84686820744598   -0.02577489928156    4.81775749465775
H        11.70074323171981   -0.65992574853735    8.19621373759644
H        14.22729752941529   -0.51321062575098    9.06850045361418
H        15.08128943355807    1.71549413623826    7.96873886967578
H        16.45106545401110    3.36850768427891    6.72339196815018
H        17.32824075498637    3.76377552543763    8.20116012639264
H        15.58724958786467    4.08180986075728    8.09000024939976
H        17.07223161603820    0.91243162971810    6.77792824735679
H        18.09504643171154    1.24889996678649    8.17469420992939
H        16.86497718064836   -0.00983112784476    8.26880119229698
H        18.04856099691199    2.60161082432349   10.09172791917902
H        17.96119548463335    2.70242185111748   12.53989159903420
H        15.90204418440547    2.08788502982927   13.72370284721999
H        12.90456905832527    0.72260563613659   11.92962091399169
H        13.41794642683601    2.78779399320451   14.11049167715315
H        11.92230008255354    1.89199096591005   13.86790843398944
H        12.46096602738985    3.03177828680205   12.61909232177812
H        14.54740705554127   -0.68746929158674   13.19666873999359
H        13.05144713444363   -0.38126615291922   14.08172007126705
H        14.51905068105606    0.49037407987015   14.50984222946846

