52
CSD_code = YIHNOU | q = 0 | S = 0 | Stoichiometry = C21H25N3NiO2 | MND = 4
C        14.70022690535655    6.43913366576861    3.33098116628539
C        13.86862946197554    8.39660733247311    4.00344914265168
H        13.48716995699327    9.39156589256097    3.90194873350319
C        13.99272240905744    7.60662830103844    5.09626841857637
H        13.75906333667097    7.79469385492113    6.12410292885069
C        14.33667470595974    8.18392726371352    1.60569867600874
C        13.53277662533538    7.60844638970344    0.61904727603144
C        13.55927049374451    8.15691071717226   -0.65329603449801
H        12.94699689837812    7.71572760182624   -1.42653147651789
C        14.35863475679898    9.24927555146196   -0.96101574675425
C        15.16077777752607    9.78655908296792    0.03348988390986
H        15.80788528007835   10.62096849110984   -0.19769787631180
C        15.16985943216163    9.26488328978430    1.31892686673739
C        12.70045645092782    6.40155937967397    0.91254686849560
H        13.35815604467368    5.52922830806456    1.06176569650254
H        12.03412499793387    6.17597017881218    0.08508670129534
H        12.10942077759202    6.52953344856890    1.81824058997130
C        14.35291074756166    9.82010335047541   -2.34652849114723
H        14.50892452740528    9.03433630201598   -3.08375120711338
H        15.13000383772503   10.57102626367283   -2.46402491267832
H        13.38974698575954   10.28434709342035   -2.55711688626073
C        16.09947900745975    9.82155785081492    2.35601201668585
H        15.56798924310301   10.44329144790763    3.07607757080767
H        16.86446359485703   10.43420445781171    1.88530479046637
H        16.58470218803734    9.01171396867161    2.89830465444960
C        14.72539717553149    5.23798824526308    5.46024319175055
H        14.38840832233688    5.43231549255123    6.48110766794653
H        15.79361814977826    4.99595416811390    5.47271923369262
C        13.94277983830123    4.08438377240578    4.82632673551309
H        12.88668577796773    4.36408448168805    4.77747658562621
H        14.03016173999812    3.20497778357569    5.47008131604809
C        14.45826846452506    3.75532057698829    3.41580948379255
H        15.25571483748347    2.99641691658101    3.47464002855767
C        13.39975931082485    3.26210934194654    2.60295721424359
C        16.48226557760070    3.68829057039576    0.01025291725812
C        17.05941498062746    4.83313803630435   -0.54671056038960
H        17.60454814004941    4.74567093146025   -1.47267510334553
C        16.96334081691256    6.07961645307600    0.07033801022486
C        16.66513299807242    2.37732631246574   -0.72567450007298
H        17.70590713071538    2.06387715988222   -0.66234647579188
H        16.40544507836857    2.49521051837854   -1.77462469229008
H        16.03419443390654    1.61526216769670   -0.27556710454555
C        17.64312856541708    7.25580129402386   -0.60082543146792
H        17.03992602305422    7.57744555289855   -1.44811815955086
H        18.62900224839710    6.97615013563529   -0.96251537112217
H        17.72414300737611    8.08261404010522    0.09942908019440
N        14.30836537734157    7.66929019930545    2.93040595689361
N        14.51237582892351    6.42057420307565    4.66522023138626
N        12.50227935770238    2.87909708099407    1.99124023183549
O        15.83601313971747    3.64693830613461    1.08794333720311
O        16.34519148501838    6.31884157599713    1.14187645374107
Ni       15.32366575097657    5.07340519864172    2.22420037271787

