130
CSD_code = YIHPOX | q = 0 | S = 0 | Stoichiometry = C49H66BF5N6Si2Ti | MND = 5
Ti       11.28612687199991   15.48637593490762   14.85340138961778
N        10.07507568356668   14.10697011610091   15.31658523312816
N         7.56089884557709   13.48209717536282   14.93142455663485
N         9.05626259505916   11.80008665155779   15.32926180559925
N        11.39709256653253   17.16339007475245   13.93604366322089
N        13.04954891455631   14.76008558713533   14.87961771941865
N        11.19644659887549   14.90554097925511   12.76889046453073
B         8.95934763695235   13.24555761189498   15.22085809354878
C         6.92345128584571   12.24406256908743   14.86678845137193
C         7.79972328863402   11.25711654315954   15.11171603677669
C         6.74553221356611   14.63687044739979   14.97140682901906
C         6.10312127933475   15.08328622581839   13.81028707841545
C         5.25020598682738   16.17566803452948   13.89154857911612
C         5.04517521341433   16.82956273696552   15.09018576528278
C         5.67844419469250   16.38004885169509   16.23214376073982
C         6.51266619504379   15.27211609656750   16.19924810828804
C         6.32293393218724   14.40885229154839   12.47523458698566
C         5.02752019569858   13.77207084751406   11.96468734641579
C         6.86609112788842   15.41072867471744   11.45349343861078
C         7.12677585734391   14.75797298742026   17.47937169753534
C         6.05444327007496   14.49951419573196   18.54111316949785
C         8.18663409585617   15.73410321488040   17.99133379162324
C        10.13063378590457   11.01578493742580   15.80034883824495
C        10.15408263480099   10.61612804723604   17.14444800961952
C        11.23938545752819    9.88338144039107   17.60339437020224
C        12.27165960009734    9.53230630676425   16.75429664290739
C        12.22924607410641    9.91079958017897   15.42684647758260
C        11.16866605188002   10.65784978644253   14.93296371898956
C         9.04362705879797   11.00712195615500   18.09271992654759
C         8.54335392503489    9.81491029050050   18.91059181461625
C         9.52060460159027   12.13573173499632   19.01067478989298
C        11.12322311819725   11.04276572128247   13.47279500641570
C        12.37810509997194   11.81741791088432   13.06803692602339
C        10.94377302256552    9.79548575507621   12.60272453281889
C        12.69689575467401   17.35593329585935   13.38109980143436
C        13.92428386515177   15.15914227578062   13.80719702986413
C        13.30252517269261   16.07058118103373   12.71788090055965
C        14.43893246314348   16.50890274271625   11.78763752264727
C        12.20674517280375   15.33483983051324   12.00035909873302
C        12.19342610584891   15.12642081075579   10.62097176905044
C        11.12856814389485   14.46562686790127   10.03639483857502
C        10.07817597477129   14.04892235457933   10.84205327146911
C        10.15744303219299   14.29771277556961   12.19940723873578
C         9.74820246692899   18.19200611672657   11.61636177882984
C        10.31755972620853   19.99865263797605   14.04891128061217
C         8.64815223961025   17.36372704321199   14.47714464556857
C        15.04660323135438   12.72082880873803   15.88195689387963
C        14.91271897005183   15.59570518405744   17.06369056877677
C        12.60333792740407   13.54482415974210   17.57240170247979
C        11.31461185955825   16.53133214044853   16.62819880515907
C        11.36321772555184   17.26332460891149   17.60115985924407
C        11.35265025483633   18.08787959638771   18.74634894142600
C        10.39681771050776   19.10222279751563   18.89125752981150
C        10.35970844579887   19.91584181617709   20.01254787780310
C        11.29027747876096   19.73294515772932   21.03231857923250
C        12.24916065960203   18.73026440399559   20.91593990255362
C        12.27357591826896   17.92286411519709   19.78881323943266
Si       10.08050812945189   18.17168836612939   13.51812590529167
Si       13.86264875407918   14.18039314976033   16.29123492391555
H        10.87087094133818   13.53951005467116   15.62638583404827
H         5.87100358010642   12.17879064795204   14.66940353170509
H         7.63664174292648   10.19626014861301   15.13868953133158
H         4.73955921503361   16.52344757186237   13.00590891955762
H         4.38674135321859   17.68451452999528   15.13531306009321
H         5.50628239949763   16.89161856520850   17.16652203326597
H         7.06222565548098   13.61214194469698   12.60488340807448
H         5.20539977011466   13.25845636591722   11.02182621758587
H         4.64689903884702   13.04906676370680   12.68231128466056
H         4.26183076403233   14.52709521784829   11.80450822301199
H         7.08687894305813   14.91007273032007   10.51272788635036
H         6.13720219678070   16.19169788712258   11.25273338442583
H         7.77426106118850   15.87865047393937   11.82666490132129
H         7.62350918729817   13.80787760712803   17.26920708802165
H         5.58882229189035   15.42554997223999   18.86795597622325
H         6.50129229260773   14.02132273408175   19.41014915291313
H         5.27922239184937   13.84487045898201   18.14811858433688
H         8.59184406895037   15.38654531291369   18.94001504546767
H         7.76158251924783   16.72429642025774   18.13973284262176
H         9.00198042678120   15.80632359302308   17.26816512156593
H        11.28338449530629    9.58449500292955   18.63923779326746
H        13.10774506012202    8.95996508298035   17.12790873010638
H        13.03016505544637    9.61448718452477   14.76605170604370
H         8.19902720653285   11.38161785006514   17.50806226636129
H         8.29049626896473    8.98259499599107   18.25714501023242
H         7.65271766584260   10.09765690335366   19.46781520005848
H         9.29272878260882    9.47886362835089   19.62258854287687
H         8.72898832907675   12.41260899242977   19.70387157761354
H         9.79226903007990   13.01016634403714   18.42332084510257
H        10.38950541223758   11.82256539865890   19.58525570421779
H        10.25701477350107   11.69371194487673   13.31765882564799
H        13.26534032924967   11.19417109317262   13.15393547045366
H        12.29774115994436   12.14647055922096   12.03232900226520
H        12.49832105423401   12.69054520258477   13.71270966111294
H        11.78443089615986    9.11597154094557   12.72202685765232
H        10.03510316707101    9.26646141672765   12.88141447444827
H        10.87315458675176   10.07485221340062   11.55324697411131
H        12.68476845812303   18.14047114743114   12.60904248261479
H        13.40937332921321   17.67446080089736   14.16492671873980
H        14.32713183316812   14.26586421872211   13.29427290795160
H        14.79270267575880   15.71025360324163   14.20276488762263
H        14.94038351897247   15.64832772133039   11.34894163771807
H        14.07156188595548   17.15407929042577   10.99273133319080
H        15.17424524807171   17.07135087612037   12.35902663313231
H        13.00968181232092   15.46344570267514   10.00483726272136
H        11.11647255986321   14.28336863010442    8.97204242191143
H         9.22596545361801   13.53546129470288   10.42726472313985
H         9.36639603322564   13.99008038145666   12.87421608783281
H         8.77507325190254   18.61330618899296   11.38745215610781
H        10.48865671856892   18.79607628809239   11.09955994008514
H         9.78602934021636   17.19401454639311   11.18581219978894
H         9.46593292223598   20.60668749381751   13.76265364117942
H        10.42767771789151   20.07163220974303   15.12641777080710
H        11.20173306270507   20.43769544907732   13.59551646207148
H         8.59390431418839   17.77326661866112   15.48114536315988
H         8.81454320821931   16.28468945495908   14.56216537494164
H         7.68428491974857   17.52854665431980   14.00947929872627
H        14.49655115571022   11.84058140345134   15.56346916242999
H        15.62698999028162   12.44349543561375   16.75542051601149
H        15.74833766604278   12.97897546642985   15.09462315887188
H        15.87422449268960   15.70769002704173   16.57036304237167
H        14.37907684198068   16.54087643929550   16.98274769204086
H        15.10684862621763   15.42228703075405   18.11623755716290
H        13.10549337647550   13.38244790180702   18.51954955585198
H        12.16306219371718   12.59762217267270   17.27706624285519
H        11.81039716497554   14.27033099281010   17.73908265511585
F         9.49262889973025   19.28921528269198   17.91844069991961
F         9.43425747186553   20.87751623907528   20.12317353342810
F        11.26192593672005   20.51500532945002   22.11804205485561
F        13.14305366815817   18.55063941867826   21.89681564153897
F        13.20152567473792   16.96058038166210   19.69910199176948

