25
CSD_code = YIHVER | q = 0 | S = 0 | Stoichiometry = C10H10ClCuN2S | MND = 4
Cu       -1.10497468560662    0.18081267451515    7.89545260124831
Cl       -1.90049336187896   -0.18726193783177    9.82041239621425
S         2.68976611985109   -1.90253178869668    6.25032402788913
N         1.47389501059376    0.35441427274358    5.89305200901781
N         0.48841080444664   -0.98437540824336    7.53193090990177
H         0.55126166478894   -1.84898470483227    8.05151433175541
C         3.32061786709136   -0.78518523004644    5.05986139757255
C         4.42827254197987   -0.96243182794320    4.25345580376324
H         5.00371215902835   -1.87176526110509    4.31424768773975
C         4.77099481431808    0.05291767338154    3.37817075369908
H         5.63111435186337   -0.06142088164094    2.73808487115973
C         4.01664569417841    1.21616963587583    3.32533957568404
H         4.29726195429798    2.00370548788367    2.64353054705168
C         2.90755072297392    1.39208761723818    4.13452309368535
H         2.34710159818719    2.31135738056558    4.07489800249235
C         2.54441808211507    0.37873222327075    5.01192677971767
C         1.39340601147156   -0.76787599435545    6.65253825966535
C         0.55923809445323    1.47526740204900    6.06659101157135
H         0.66695432174928    2.11236894233060    5.18482971087557
H         0.85282454977611    2.05145010998016    6.95199642524512
C        -0.87997657800232    1.04860207386040    6.18471647975393
H        -1.22253247689670    0.39142932285047    5.39218475358379
C        -1.80546389220478    1.74245027468858    6.93415087120929
H        -1.51919892522177    2.63294807632104    7.47509811814224
H        -2.85980644335279    1.64291986714087    6.72866958136117

