59
CSD_code = YIHYOD | q = 0 | S = 0 | Stoichiometry = C21H34OSi2Zr | MND = 12
Zr        8.38902169551789    0.79962899232160   10.11615273985018
Si       11.43747293141546    0.57920904589945   11.90744845744133
Si       12.74599126724201   -0.74727244585528    8.75093544036913
O         8.68412027546231    0.22365451964083    8.35908685240561
C        10.51481276726196    0.28020316137144   10.29874102737405
C        10.97340375049257   -0.12911372622637    9.09898920044873
C        12.62862289673392   -0.70788025234483   12.69556937534394
C        10.07820923060778    0.74958518218121   13.26930497478193
C        12.33591206172797    2.28556313129575   11.88310753925288
C        14.04518469896802    0.48827438788778    9.42315223006706
C        12.89883638160440   -2.47472616480528    9.57038697384954
C        13.36803762075692   -0.99697727876506    6.94861134102440
C         9.95752784417439   -0.18389999543976    7.94270130199130
C         9.84153618333233   -1.63304943462656    7.42776810850676
C        10.39695317906487    0.75960903277175    6.80644368123126
C         6.95204530886666    2.83673579703926    9.73070627843165
C         7.47691876106292    2.96534502522289   11.03733642888193
C         8.87208594281410    3.13972748362437   10.93059560541948
C         9.20730286831024    3.13330747163870    9.55566497731521
C         8.01941549796903    2.95965176667385    8.81862451053167
C         7.08327744781791   -0.19653424458235   12.03296597142270
C         7.89632931365918   -1.21981978308665   11.48353562034048
C         7.38967364463430   -1.52668322424042   10.20098682447988
C         6.29804332779053   -0.67581171586858    9.94329182032790
C         6.10033114274837    0.13405115431460   11.08016062058776
H        13.00025593265719   -0.34461004659612   13.64964139440672
H        12.11586681488557   -1.64611456230661   12.88596154423978
H        13.48503053186020   -0.92798998583335   12.07016365606592
H        10.47820343855738    1.24519404551678   14.14983510744735
H         9.22534686523274    1.33613731099556   12.92114226447958
H         9.71407214014814   -0.21995909363954   13.59725692122411
H        12.07691476864237    2.88271824928108   12.75271847889642
H        13.41420631861172    2.17228669603478   11.88152610963363
H        12.06766433830147    2.85626782366130   10.99877633332835
H        15.01500976465900    0.29343954926242    8.97520748190044
H        13.77653606620954    1.51341589475993    9.18980489702950
H        14.16262516602144    0.42009045980665   10.49597727772619
H        13.93175804001287   -2.70618499166728    9.81179869484088
H        12.32149223274104   -2.53164462289627   10.48654987243025
H        12.53873668268509   -3.25584275790039    8.90703108248792
H        14.32586184094094   -1.50980262292167    6.98238480829395
H        12.71185339921597   -1.59760095190067    6.32824541846960
H        13.53364236732445   -0.05182056301814    6.44031807590202
H         8.97375179469529   -1.70266961883552    6.77384226074080
H        10.72573853921740   -1.93548426349472    6.87911520893039
H         9.70262987134513   -2.30357639160099    8.27454813118542
H         9.61935618936573    0.77470911872896    6.04446164517820
H        10.51258079630712    1.76601297581072    7.20744541607773
H        11.32964525586004    0.44076454084826    6.35836572040816
H         5.90040254247920    2.80559959685978    9.46571501462782
H         6.89587353443677    3.05885515186542   11.94812547082881
H         9.54289811830158    3.41431558838555   11.73426628825215
H        10.18653698293837    3.35167125052704    9.14631918294513
H         7.92899542764895    2.99081954871556    7.73975813279726
H         7.09727531796160    0.14184832626565   13.06191454258996
H         8.65473645234792   -1.78934791457887   12.00977286839545
H         7.72252587979740   -2.33620321196292    9.56519918838404
H         5.65684265587738   -0.71696724076645    9.07041278257175
H         5.25496789280317    0.79079482654511   11.24813082576824

