102
CSD_code = YIHZUL | q = 1 | S = 0 | Stoichiometry = C34H63N2P2Pd(1+) | MND = 4
Pd        1.13509215444782    3.39035338255629   17.51327309012808
C        -0.28236311615412    1.94674936975216   17.80968727462297
P         2.72548753326440    5.05510140179406   17.06933136749008
C         1.81945546473850    6.42438664056013   16.19336661165178
C         2.64932061334915    7.58082359138131   15.63816126056519
C         1.71302039697701    8.63897844206090   15.05183531673029
C         0.82562317386395    8.04636334349507   13.96040949993845
C         0.02169354926093    6.86559041859738   14.50009729874933
C         0.97181127573083    5.81875653033171   15.07259472063642
C         3.83940586747897    5.96009835920738   18.25571062483603
C         4.66332774949618    4.95782202329302   19.06704038174471
C         5.51176808063393    5.66206992160912   20.12261451595593
C         4.63739517788423    6.48996169537288   21.05652959385656
C         3.83765840725925    7.50714386903733   20.25167618484410
C         2.98293350576111    6.81273349635823   19.19468808416365
C         3.93580501121318    4.42233227490066   15.80816127129901
C         3.35840019892879    3.30635246527973   14.93642265214149
P         2.14691715553735    2.22017827296694   15.83462986065991
C         1.18302226528570    1.43214409868003   14.46737842119618
C         2.01221385662887    0.93667915136548   13.28467171996963
C         1.09477072229843    0.22334291098855   12.29194095819940
C        -0.01332450354052    1.15953288697147   11.81669599590263
C        -0.82452014800986    1.68436681962233   12.99883147717704
C         0.09035367223479    2.39251035603740   13.99384588612552
C         3.23487683904330    0.88887249311291   16.54324690043344
C         3.65103081837476    1.38546291618735   17.93218573128572
C         4.55905175365950    0.38376315493435   18.63630917897825
C         3.85389485070633   -0.96266631246013   18.76091306414293
C         3.43994784529801   -1.46734464953123   17.38276929377993
C         2.52898944322428   -0.46037515622798   16.68204647167210
C         0.20493506562039    4.28998457038812   19.03806994791309
N         0.50631179574050    4.17592249718099   20.34201666034187
C         1.56233534992379    3.35538491789438   20.86886955514934
C        -0.37252166410738    4.91397048813184   21.11093495861971
C        -0.26939640781557    4.97285309242944   22.58951413288021
C        -1.24631277813177    5.49605605741039   20.24414502810236
C        -2.40488891203279    6.39290487742763   20.47594125225184
N        -0.87044491965405    5.09104207643671   18.97800331557626
C        -1.57566631735427    5.42834242012291   17.77150075771598
H        -0.31605804893044    1.20309191493407   17.00851595965774
H        -1.29491147380930    2.35531839087505   17.90261740832091
H        -0.06329661761554    1.41075028481480   18.74311063296729
H         1.13263017636594    6.82125432041405   16.95571972999660
H         3.31567301988979    7.22389765297678   14.85023875151960
H         3.26151161549555    8.03610548424342   16.41801039965602
H         2.30368350050390    9.45951185932409   14.64187401837868
H         1.08586974805024    9.04746144610954   15.84801019026185
H         1.44940613387412    7.71058895634024   13.12905529873227
H         0.14997021144944    8.81263446984865   13.57881086984090
H        -0.57892273222101    6.42699951003430   13.70135881261962
H        -0.66122092238716    7.21566834371094   15.27700057546409
H         0.41883922315828    4.94292051271409   15.45307283537845
H         1.62942549276600    5.48444432881311   14.26790646150655
H         4.51644515477003    6.60040471330713   17.67791063822282
H         5.32594654751625    4.38866265785737   18.41125494943009
H         3.98377562871927    4.25348802358092   19.55655972591001
H         6.23189842203339    6.31752340264458   19.62857847680274
H         6.07319403713763    4.91969550757280   20.69242950309591
H         5.25896909322628    7.00230651293730   21.79149034297827
H         3.95419472178098    5.83179473669638   21.59937812826782
H         4.52570589580259    8.19866930097333   19.76098456259867
H         3.19531921407706    8.09093862765994   20.91357699189552
H         2.24760539425332    6.16700201423515   19.68557301104271
H         2.43707689606986    7.56959441508442   18.62869471900763
H         4.28617529147596    5.25477583358505   15.19151982659747
H         4.79927300790647    4.04494083567151   16.36158291155761
H         4.16214721734609    2.68745464918060   14.52657927149978
H         2.81222869723971    3.73647352128594   14.09351977124595
H         0.68501075740884    0.57053809550461   14.93109277774432
H         2.79660937038646    0.25597382473516   13.62249857093978
H         2.48978255779181    1.77845535137267   12.77990535181075
H         0.65053470877624   -0.65209819276432   12.77078245922867
H         1.67850125874957   -0.12387206420894   11.43807525068419
H        -0.66977452054110    0.63120075675222   11.12452279132670
H         0.42947355826692    2.00091876896123   11.27856202378407
H        -1.32560558680061    0.85076541335355   13.49537325921264
H        -1.59312810643192    2.37388054629582   12.64566379298529
H         0.54087125716100    3.25939478955186   13.50427270917062
H        -0.48722946782020    2.74474273698006   14.85977618987388
H         4.12170240853616    0.77281899858701   15.90688589806308
H         2.72796977207286    1.51630683658291   18.52463568993416
H         4.15562286143117    2.35367763391519   17.84749115764865
H         4.83191792996660    0.75939645281237   19.62455653901704
H         5.47948690395119    0.26032203046688   18.06115266091161
H         2.96681367951860   -0.85298828663337   19.38909266523262
H         4.51456651702317   -1.68684216816357   19.23856966188641
H         2.92000823878915   -2.42180383801852   17.47673258631108
H         4.33195863198020   -1.63274588531680   16.77424219059547
H         2.25627804329548   -0.85376566025027   15.70161456121792
H         1.61512209587746   -0.33058295259401   17.26803181816386
H         1.15145998012671    2.55600460062975   21.48892186036025
H         2.24786839810094    3.94966482988054   21.47602783099380
H         2.10334776133381    2.91455096705680   20.02194434431068
H        -0.35543380319279    3.97651034466676   23.02195667536443
H        -1.06217427226751    5.59312963935735   22.99529143408910
H         0.68864305884704    5.39302078610244   22.89578672585779
H        -2.48488028928243    6.63543451118690   21.53085508646265
H        -3.33286059028861    5.91520331643322   20.16189335727247
H        -2.29515722031961    7.32006191149243   19.91447864374272
H        -2.63339180440278    5.18006257349021   17.87092294653303
H        -1.14614385318814    4.84443233204617   16.94796810649568
H        -1.48723560784615    6.49471360669828   17.55492729059183

