73
CSD_code = YIJCIG | q = 0 | S = 0 | Stoichiometry = C25H42I2N3Sc | MND = 5
I         1.46757904056461    5.07306340106653   11.36064676952619
I         2.56455788452889    8.77374771366183   13.86477646840851
Sc        3.54814356409736    6.37289486366161   12.75299635916935
N         4.94050770784516    7.18488590513010   11.36199237760832
N         4.76085334005282    4.56633208390602   12.77696454534018
N         3.55912942618424    5.31336753413718   15.27690924813853
C         6.49494494642206    7.10712108899115    9.44712924360892
H         5.94809213550324    6.90016306603416    8.52702506286444
H         7.49093650682953    6.68216286198837    9.34466011675722
H         6.57335528282523    8.18566287498370    9.56321332138122
C         5.76105034655286    6.47125768600166   10.60435977328616
C         6.00703319181494    5.10885202493742   10.78883902635415
H         6.66674392580551    4.67446881128736   10.05218411367116
C         5.57547512290809    4.22724713659108   11.78627213285827
C         6.12314256328976    2.82488831468929   11.68752681012172
H         6.66100996154842    2.55167273858513   12.59545328704572
H         6.80130900505559    2.73358295346978   10.84490297634427
H         5.31106106416176    2.11016162940518   11.55130343109265
C         4.47334023205665    3.52400146447861   13.75538664197467
H         5.39860141410264    3.24810403896419   14.28225868091705
H         4.10079720934913    2.61574984467208   13.25975130792596
C         3.40020831313342    3.93849488983572   14.77020627239544
H         2.42457493223379    3.87374856858387   14.27780704800668
H         3.40588682351082    3.19419350234823   15.57940144854024
C         2.41912978468121    5.71118369321735   16.15042794367751
H         2.58141994458835    6.76786252419563   16.38380137429442
C         1.08485781751137    5.61998400766254   15.40095608028422
H         1.17431451460281    5.97055732456181   14.36948637378049
H         0.35877565131335    6.25901193370464   15.89760045046513
H         0.69114596881772    4.60568157997803   15.39670738516164
C         2.26958117417160    4.95477549153449   17.47633828979757
H         2.31643721126308    3.87811517376917   17.33631899568229
H         1.29668416065878    5.19353709360283   17.89870512743610
H         3.01928740675459    5.25173883422532   18.20303464423083
C         4.91401065631852    5.53093135204697   15.86471559232940
H         5.60317567692078    5.46453641634852   15.00743508358479
C         5.40925095670276    4.50674960806574   16.89806770176786
H         4.89630415181668    4.60141441736275   17.84856292694068
H         6.46746172728775    4.69038369071660   17.07321043394491
H         5.30718436696051    3.48239111698109   16.55185984444780
C         5.07525631011367    6.93348898420584   16.45136556012405
H         4.72042195556809    7.69874833958623   15.76488008722983
H         6.13100509812328    7.11500444803290   16.64082422016074
H         4.54714390489150    7.03722810366884   17.39558783831659
C         4.88735610985807    8.59895346145225   11.14461238906565
C         4.04199378300416    9.14482974917447   10.16779370864379
C         4.02723999082326   10.52217177685332    9.99774943109166
H         3.37651517770500   10.95796192871197    9.25588199755390
C         4.83285173077771   11.34269504238648   10.76168348325133
H         4.81769788206593   12.41087956876958   10.60761987269923
C         5.64374615319537   10.79883971196274   11.73980537997666
H         6.25284598189751   11.45200182660671   12.34331722933621
C         5.67443387641216    9.43011318700252   11.95896601031153
C         6.53311516850357    8.83548899211100   13.05638578050897
H         6.08724155174632    7.86656539187277   13.35495877928039
C         6.59089433817646    9.72537701054515   14.29883731025541
H         7.20376799886677   10.60488483228201   14.12012537018620
H         7.03404883821286    9.17628745813828   15.12742359359538
H         5.59448152865004   10.05087895322806   14.58852644100810
C         7.94807607186809    8.55947900498910   12.53941204009825
H         7.93383011540558    7.81923747913674   11.74324844776306
H         8.57703833650930    8.18484104550298   13.34498890408990
H         8.39028472253342    9.47555771610243   12.15291517238154
C         3.11959385480486    8.27347001469942    9.34450459026488
H         3.33265992055475    7.21685563405028    9.56498749927170
C         1.66333361065245    8.55680527132639    9.72605989385633
H         1.51298201543439    8.43549480547313   10.79888867304049
H         0.99859877508266    7.86972331176923    9.20746391124521
H         1.38775765744369    9.57492931226682    9.46246685134623
C         3.32157485758058    8.48920924067761    7.84326726699292
H         3.00301087110857    9.48578588042324    7.54853539713785
H         2.73169597446663    7.76566362236607    7.28496720989168
H         4.36755072712645    8.37156963923637    7.56735494887865

