29
CSD_code = YIJDUR | q = 0 | S = 0 | Stoichiometry = C6H14I2N2O4Pt | MND = 4
Pt        1.32714970504559    7.45524417381067   -1.25228128292596
I         0.97291589481612    9.51148290578600   -2.73703416506137
I        -0.15672593821762    5.84871923817035   -2.58732988037880
N         2.60526751198407    8.58240794357511    0.09869120132828
H         3.27175668278403    9.19353024283006   -0.37468441240544
H         1.98337643212903    9.19191366228262    0.63466095256065
N         1.80933993821192    5.89132619378429    0.18723997130897
H         1.01627781296966    5.27946217102772    0.38231950507746
H         2.54130131787586    5.31009071416467   -0.22958008568354
O         3.64595549087835    6.19635864243118    3.40794499043867
C         4.57081166704649    7.22286328164414    3.08295266472251
H         5.40786494738897    6.80336872390421    2.50240539360059
C         3.29767810856269    7.64073738588434    0.97336019796836
H         4.12194188626966    7.19232699708302    0.40376123508003
C         3.07904509320165    5.54045376371063    2.31322734568684
H         2.37207634433138    4.82485951944095    2.76325410612769
C         3.89355888472938    8.30821675915729    2.22282100042447
H         3.07448827308556    8.76793799287107    2.80535511108576
C         2.32787769367476    6.52720093065302    1.39192324251403
H         1.49681338195284    6.96158184855562    1.96217568380412
C         5.13346510255388    7.75826330490276    4.41352762755349
H         5.44755408100824    6.89861678289818    5.00837893178709
H         6.01745856588718    8.37805516360950    4.20048358657345
O         4.20811750365166    8.43870288575530    5.20900584933426
H         3.93600135446745    9.26361865169776    4.79177538627424
O         4.79506331620076    9.28570341843435    1.76465654231862
H         5.28695127289815    9.66791437741477    2.49839481660268
O         4.02411123187287    4.88278307692799    1.52154578362816
H         4.50870644273926    4.24405924759236    2.05664870065467

