38
CSD_code = YIJGII | q = 0 | S = 0 | Stoichiometry = C16H16Br2NNiOP | MND = 4
Br        9.71908726224992   -1.17176916654199    3.47506627487029
Br       10.42329116626319    1.59088437684728    2.02989745399572
Ni        8.64535826665149    0.26711868794822    2.18773380006014
P         6.76802618198060   -0.79431516982119    2.49699101108811
O         5.57211139282058    2.02931784624707    0.08644438521908
N         7.48311514517168    1.48674880619262    1.08414619581096
C         6.26385228657269   -2.50824601503826    2.78905290489302
C         5.55514645621835   -3.27354897566332    1.86942949839014
H         5.24722268881690   -2.85731294434771    0.92090428344760
C         5.23339887785946   -4.58509895904667    2.17064006150490
H         4.67625332188811   -5.17471892008899    1.45730165388838
C         5.62731792439130   -5.14207757970739    3.37589761308176
H         5.37715944240420   -6.16785120691524    3.60107029583701
C         6.34836930929591   -4.38642910228098    4.28706945665277
H         6.66654823041514   -4.82088240497380    5.22226597086460
C         6.66927631065659   -3.07462832585547    3.99728818797646
H         7.24521707441430   -2.48491625510512    4.69732160572754
C         5.99407785839220    0.07473392251214    3.89773313445776
C         6.71590174776353    1.06406264416571    4.55594513115514
H         7.74068287396645    1.28475443198765    4.25150853672576
C         6.14393857040499    1.76012648205729    5.60552053800714
H         6.70891036750183    2.52556226760720    6.11546561713526
C         4.85026282282697    1.46446421276157    6.00103261746839
H         4.40163015444027    2.00346953042708    6.82190710424244
C         4.12994288617387    0.47215096761660    5.35246144650692
H         3.12381035976914    0.24011150462930    5.66922309408090
C         4.69721665047057   -0.22542056655106    4.30329895972204
H         4.14395746502562   -1.00916431428584    3.80282694971817
C         5.71258037760934   -0.18444624143019    1.09025156134051
H         5.82986272572347   -0.84456589671313    0.22489656001741
H         4.64984698621459   -0.09256838347970    1.32667587051454
C         6.29980559850330    1.13767617794759    0.75986311076687
C         6.38916809091012    3.19350061527773   -0.09304894220652
H         5.88486800221270    4.04056863167033    0.37753284176532
H         6.48779956264090    3.38031899085201   -1.16457526497763
C         7.72575311189394    2.82897956239574    0.58486417209869
H         8.57203700354050    2.81665870156742   -0.10626690243638
H         7.98329544594717    3.48955206713545    1.41616321058739

