54
CSD_code = YIJJOR | q = 0 | S = 0 | Stoichiometry = C26H24AgClN2 | MND = 2
Ag        0.60421196524942    2.20190963939025    5.52163719648065
Cl        1.24868090072022    3.26350848840786    3.66524409822458
N         0.54968667300556    0.04589414495992    7.81191621857747
N        -1.14904277192030    1.38178799375224    7.98376675927829
C         2.38890748113092   -2.94839576413479    7.85800232319891
C         3.28442214591550   -2.59609946865115    8.90706872367956
H         3.46429429356234   -1.55920812831146    9.14553921034222
C         3.94548382301571   -3.53733842979382    9.63620930374288
H         4.61981850804866   -3.23191271159696   10.42270708696600
C         3.76617812651123   -4.91062372122891    9.37986248074788
H         4.30218960772356   -5.63731789243387    9.97130001732577
C         2.92106788591854   -5.30003161690252    8.38951784789846
H         2.76835996490964   -6.34713503814374    8.17164306875331
C         2.21578766282793   -4.34915166705831    7.60743307040979
C         1.35205490189142   -4.76787054119736    6.60347201780249
H         1.21400541553283   -5.82665463458513    6.43458799696828
C         0.67059099089083   -3.85846944517191    5.80495577710537
C        -0.18796699854227   -4.30468024183089    4.76780338314252
H        -0.30328156882162   -5.36985347033435    4.62736804390809
C        -0.83751727898076   -3.41977709462800    3.96591361052692
H        -1.48698269279217   -3.76272875589503    3.17454832909975
C        -0.64607085377367   -2.03714610726028    4.15724077096366
H        -1.14135773934656   -1.33823664157123    3.50009447507311
C         0.16181382792991   -1.57240931067406    5.15045691597593
H         0.29149420465161   -0.49923211190541    5.23855986683094
C         0.84535637737316   -2.45515759187551    6.02950385127006
C         1.67858122677449   -2.01776407306877    7.07607249563737
C         1.79107310110569   -0.53455005140512    7.34372259495630
H         2.56255664608261   -0.32813321846255    8.08710647210278
H         2.07294414575057    0.00195807788755    6.42626518876017
C        -0.16206301993727   -0.38252742613272    8.90963305681503
C         0.02867296281447   -1.40959666011153    9.82383495363843
H         0.86853271297086   -2.08039899988351    9.75642869667520
C        -0.90596218075703   -1.54004310571338   10.83219910180510
H        -0.78622393578705   -2.32710882461892   11.56063804533085
C        -1.99918201643337   -0.68093179494987   10.93712473645751
H        -2.70351395592725   -0.82165713075218   11.74251867879314
C        -2.19650777397464    0.34661764044258   10.03651568874066
H        -3.04044536121049    1.01252135251251   10.12394820961155
C        -1.26209499647776    0.48690000806864    9.02059664218815
C        -0.04349450100993    1.12445016446698    7.25405048710781
C        -2.03641355198902    2.49126172685443    7.75433673271649
H        -3.05849050713965    2.17935557154099    7.98523405732821
H        -1.97923676616864    2.75513450326854    6.69115875375438
C        -1.64173769292079    3.70223637215426    8.60221683802255
H        -1.65289019072940    3.42516370352830    9.65944598298869
H        -0.62022913314227    3.99001982642721    8.33920446568717
C        -2.57874107532944    4.88318996897617    8.36818523489132
H        -3.59897175032591    4.59597671058304    8.63365446496357
H        -2.57011613727731    5.14189751941409    7.30768947786195
C        -2.16191728640606    6.09678854835578    9.18905895474246
H        -2.17101467708765    5.86331271031790   10.25165460341136
H        -2.84186455531207    6.92637241672873    9.01385124808815
H        -1.15813458279594    6.41278458223731    8.91570169263279

