147
CSD_code = YIJJEH | q = 0 | S = 0 | Stoichiometry = C70H70N4NiO2 | MND = 4
Ni        9.93032587809883    8.48839629118783   13.17990057280516
N         9.10114365358660    7.24140619192765   14.33070601343946
N         7.60734586658305    6.13805561745149   15.49646951228602
O         8.78910074271255    9.77109590941606   13.91702373923605
C         7.51464962806493    9.58895489665805   14.05472924484207
C         6.60822243696796   10.66271656779024   13.78371601896468
C         5.26421509729018   10.47881688152490   14.00634177859540
H         4.59136628794244   11.29334066260027   13.79891282684473
C         4.70771487702835    9.27917646892834   14.46662535038024
C         5.56620883109357    8.23000622630704   14.68926996551875
H         5.18129063278056    7.27469106374312   14.99190893495568
C         6.94600773655482    8.35787360654667   14.50532748752030
C         7.84296918357453    7.26041987951706   14.75645946867646
C         8.78982980712861    5.42438073091720   15.57447445692749
C         9.71386795188841    6.13661693584918   14.84924725387657
C         7.15065809858516   11.96302263275764   13.20259507856974
C         6.05765609585732   13.00678769962601   12.94564694437925
H         5.55181977079677   13.28610608639062   13.86773445141506
H         5.32356086731256   12.64720485973179   12.22730092269302
H         6.51572167587940   13.90331584805187   12.53198518728404
C         7.82608238870105   11.65032607945798   11.85935608634040
H         8.22837289081964   12.56112050248707   11.42084148318320
H         7.10301142077469   11.22092686505416   11.16694948443976
H         8.64187351824815   10.94506752063297   11.99687225748890
C         8.16707822888411   12.57772393478012   14.17166250638336
H         8.56573663287759   13.50218697461440   13.75905038666401
H         8.98549441511699   11.88678595010342   14.33646840878100
H         7.69192985869795   12.79758151852985   15.12634346452746
C         3.20417512716829    9.17917007851402   14.67189730472053
C         2.49300637972986    9.40484071661493   13.33023496837705
H         1.41443760875669    9.33073093541983   13.45620708167595
H         2.80880815684636    8.65502070099518   12.60748769237736
H         2.72205132213211   10.38595785722181   12.92380000402310
C         2.76074724296211   10.24833113890616   15.68003580962211
H         1.68876490951035   10.18050838481905   15.85621169634444
H         2.98311293652195   11.24846747299264   15.31943478620859
H         3.27735467829847   10.10503856749924   16.62686662747777
C         2.77611923296436    7.81248290229429   15.21568955514572
H         3.25556841907838    7.60287505949046   16.16971065449192
H         3.02177586346035    7.01663861574105   14.51609061164682
H         1.69843754445676    7.80359445732696   15.36900346103368
C         6.46017541645856    5.79010798562708   16.25136522229404
C         5.47239892802497    4.98534765931163   15.69414615579333
H         5.56622036635491    4.67044139480370   14.66488915393023
C         4.37430611067992    4.62542372726858   16.45244440990248
H         3.60290711972283    4.00633240904234   16.01955695276608
C         4.26108079799914    5.06110160039248   17.76312747380243
H         3.40070420035415    4.77998736009964   18.35121312572199
C         5.24716494835937    5.85944826012894   18.31585082430675
H         5.15903599259338    6.20117579601503   19.33596820687802
C         6.35113751602720    6.22348253095763   17.56432399325111
H         7.12556722435884    6.84739626660948   17.98422886777432
C         8.97033411945169    4.21246905647371   16.36298494149586
C        10.06964181847472    4.11845329226722   17.21711390344271
H        10.75870892023673    4.94730540629016   17.28388634548664
C        10.27234283616961    2.98207332181087   17.97507226337416
H        11.12576115834641    2.92341232499749   18.63439382394604
C         9.38184957803828    1.92333658681829   17.89689730127241
H         9.53796124349452    1.03759126688645   18.49437380157358
C         8.29366004428041    2.00459887930890   17.04512669803701
H         7.60132106539554    1.17861562135013   16.97176206187739
C         8.08910005822422    3.13725297702771   16.27915834351692
H         7.25185806180505    3.17958727749938   15.60020108706370
C        11.14164494887051    5.90210908845111   14.66467920353075
C        11.65408264265068    4.63516585330234   14.40243974277826
H        10.98146886308619    3.79362851730297   14.32196091503487
C        13.01593784277670    4.46187016823714   14.23682220445527
H        13.40685049784478    3.47379115929831   14.03551521840310
C        13.87637566451815    5.54453086794881   14.33089734030706
H        14.94085057662507    5.40433591098699   14.20677317000291
C        13.37281411476931    6.80967268150200   14.58901746434593
H        14.04000466923471    7.65552455389037   14.65718617123077
C        12.01274410360257    6.99010974724262   14.75500881495797
H        11.61405010953175    7.98160963951953   14.97045541054531
N        10.76911004518436    7.22662275733323   12.05085220985695
N        12.27134641188775    6.12496055234290   10.89442261863665
O        11.06054990321524    9.76612219344933   12.41339080876121
C        12.33777927201953    9.59047559236299   12.29139054947110
C        13.23520323074512   10.67585177525398   12.54449071227107
C        14.58362423397890   10.49048072088980   12.35120819918038
H        15.24977554858811   11.31328224573204   12.54721890605591
C        15.15298064807831    9.28008222600901   11.93722683869426
C        14.30141158400606    8.22405496198413   11.71982088079331
H        14.69344172598270    7.26198726321661   11.44855455489956
C        12.91823487219647    8.35354282102071   11.87348588902280
C        12.02771422339445    7.24961582498897   11.62776766792223
C        11.09313700412054    5.40418451031457   10.81803760396534
C        10.16381403717752    6.11514556672609   11.53809754225866
C        12.67883315937315   11.99006248224176   13.07896898074582
C        13.76191906932754   13.05000523837541   13.31035935595582
H        14.27788224936876   13.29771439109217   12.38483324015239
H        14.48894480084601   12.72272936056921   14.05101086540110
H        13.29303801963418   13.95837333027261   13.68418172434119
C        11.99578134175520   11.71399438248439   14.42625410361154
H        11.58015634849563   12.63391615600753   14.83205270292440
H        12.71763280598846   11.31483449738639   15.13778108669217
H        11.18920639943584   10.99535626573457   14.30477115230565
C        11.66557273040557   12.56598561193259   12.08305589487240
H        11.25641215839409   13.49964846845593   12.46336164638666
H        10.85372833907997   11.86390833351840   11.93310467809205
H        12.14704362152735   12.75991671174845   11.12590845912317
C        16.66128446034656    9.17871880272082   11.77229923198598
C        17.33976840447685    9.46456225815778   13.11952358566075
H        18.42101335400386    9.38609066837116   13.02284289194796
H        17.00684507518654    8.74708563900837   13.86698975943268
H        17.10161936538561   10.46242236682886   13.47690786773274
C        17.12340714819420   10.20693383513393   10.73064236845575
H        18.20029759045448   10.14183782914464   10.58669076291564
H        16.88234841264193   11.21954146221348   11.04111238061368
H        16.63411916000305   10.01751501811032    9.77741108292862
C        17.10760686016868    7.79217592112672   11.29814885245227
H        16.65758689807766    7.54188648598686   10.33966518613962
H        16.84196618851239    7.02569599384584   12.02274222394968
H        18.18936415162463    7.78012966512494   11.17777313043909
C        13.42410120201266    5.78420606839441   10.14491838067486
C        14.41108359402746    4.98082421046380   10.70561232297267
H        14.31078563308888    4.66077129690598   11.73270330227932
C        15.51619902094910    4.62898849389409    9.95387681723195
H        16.28693796487854    4.01095620332213   10.38942418723667
C        15.63731995826190    5.07177403113146    8.64620246056481
H        16.50300402807775    4.79661013511009    8.06308644685703
C        14.65269881674385    5.86972024328986    8.09047165902798
H        14.74751135770997    6.21769057854990    7.07304720565588
C        13.54174585701570    6.22589020073436    8.83566518086856
H        12.76881059876893    6.84995960784548    8.41313852545891
C        10.91783549740243    4.18908309792171   10.03325398178960
C         9.81790458756237    4.08885115872741    9.18048168330317
H         9.12649985534497    4.91555370883730    9.11151356623894
C         9.61758240604524    2.94933828657165    8.42669435470187
H         8.76373054344618    2.88600680632433    7.76836423178597
C        10.51105517580705    1.89332978708188    8.50781472079338
H        10.35641603694358    1.00477747766589    7.91411433224132
C        11.60037582856746    1.98111862149967    9.35743289970420
H        12.29526772801474    1.15747012383160    9.43273346968762
C        11.80282655413828    3.11721368664651   10.11898799138648
H        12.64140281077880    3.16454980016172   10.79593520864628
C         8.73790549405540    5.87234871811269   11.72637857606576
C         8.23433392672899    4.60415495553098   11.99944601315975
H         8.91235560681869    3.76731606647447   12.08362612856811
C         6.87412503641037    4.42349584917189   12.17078528728396
H         6.49015328109793    3.43453365989310   12.38081077304459
C         6.00665664024827    5.50017987306068   12.07246133377061
H         4.94346905425223    5.35444087148376   12.20124061686793
C         6.50137816067222    6.76668992983547   11.80396454462729
H         5.82865833431053    7.60793563001499   11.73276458930117
C         7.85963403348484    6.95421241557301   11.63116759561245
H         8.25135906867782    7.94640773956068   11.40589326259189

