38
CSD_code = YIJKOT | q = 1 | S = 0 | Stoichiometry = C14H16N3O4Zn(1+) | MND = 6
C         4.91768266329408    3.11957174081751    3.61443127593979
H         4.92275396971895    4.14541084840486    3.95418922732587
C         5.19810039404803    2.07806414440368    4.50156925353925
H         5.42280711883765    2.30004363695310    5.53222508730399
C         5.19322741897698    0.78502873310223    4.03658418962972
H         5.41769713856447   -0.04568544056972    4.68851197380772
C         4.89192701337368    0.54614931789193    2.68488180602667
C         4.86220572256142   -0.76187843828279    2.12030026493776
H         5.08580980042497   -1.59912500914188    2.76345718323003
C         4.56524891543760   -0.95002109341164    0.81219783764158
H         4.54595383806313   -1.94073774214498    0.38482095080883
C         4.27074075987960    0.15457246604374   -0.03831505460070
C         3.95109291194990    0.00415888453550   -1.39824873333743
H         3.93279267949515   -0.98195546667038   -1.83710189974308
C         3.66287957725124    1.12132103281773   -2.14521977539350
H         3.40526699057710    1.04440414483153   -3.18914374527852
C         3.71592609308049    2.37558187402671   -1.53455228469346
H         3.48294673529965    3.26617350779727   -2.10097502205219
C         4.29916584988534    1.46606744861888    0.48549463037727
C         4.61740653693587    1.66563267202597    1.86905219374035
C         7.20906216783918    4.09768594106203   -0.62744091771380
C         6.29321101979559    4.86053576751485   -1.63861430542052
H         6.90151854670450    5.60177211326753   -2.16112684848613
H         5.95917743069425    4.11707975408862   -2.36463208159594
N         4.63754054409539    2.92508867477284    2.34140403918222
N         4.03151138318072    2.54862312336137   -0.26691821036489
N         5.12923936002280    5.45205062469029   -0.95750753353518
H         4.36512935034243    5.58285351653629   -1.61403721031231
H         5.38371677943849    6.38544722334904   -0.64349089833304
O         6.64360231970732    3.78048453857456    0.47933891768054
O         8.34712123279225    3.85452820874048   -0.93995618585416
O         5.70843673342497    5.73952090957141    2.16455947251321
H         6.55508979504881    5.27665493180743    2.22087865674457
H         5.92158832102222    6.65420640293662    1.95507003500438
O         2.97139564962495    5.26892330277444    1.16179371602599
H         3.02260158196339    5.79827340997459    1.96333992439216
H         2.14578174247505    4.77796914971562    1.19622475411109
Zn        4.82624391416750    4.19412514519902    0.72405531675905

