89
CSD_code = YIJLIP | q = 0 | S = 0 | Stoichiometry = C35H39B9CuN3P2 | MND = 4
Cu      -17.48294389634689    5.30003207511690    0.44800678790513
P       -15.51915333639280    4.18754028153726    0.07556284085400
P       -17.96112123289189    4.98187896232024   -1.75787518856974
N       -17.58565448926519    7.13950626434366    1.35435899464546
N       -18.37366357411896    7.11514656361724    2.43775963706125
N       -18.67165790716998    4.86065874736293    2.07089381767278
C       -17.18867235779013    8.38807372048970    1.18841497977767
H       -16.53743879992190    8.65510255333764    0.37948447974311
C       -17.73024056902188    9.20232012383193    2.18911959278376
H       -17.58818278841852   10.25498332702894    2.31768808685442
C       -18.48239152228939    8.35988141543278    2.97213985174758
H       -19.06974340880465    8.56715341090064    3.84141489345856
C       -18.92930762516528    5.91637461336314    2.85764976038532
C       -19.69528095069980    5.81457301772225    4.01680026967785
H       -19.88866813794273    6.67486573558653    4.63489469116885
C       -20.19862718687743    4.57399402086862    4.35400850219841
H       -20.79795982674471    4.45349567470330    5.24298507292465
C       -19.92176375967285    3.48182835671999    3.53647635651437
H       -20.29967481744313    2.50228039414547    3.77959750986532
C       -19.14817476048579    3.66215027208858    2.39804541817040
C       -18.80914559012381    2.51479139039267    1.50724004032518
H       -18.45619816472462    2.87658687723367    0.54324255674597
H       -19.67371276697257    1.87223126976210    1.35723499411463
H       -18.01530339655085    1.91832312637253    1.95728731770498
C       -15.15437516790440    4.49850807329764   -1.69620598759969
C       -16.33515081584589    4.94453865342157   -2.59203261060089
C       -14.01112086672675    4.67480708177825    0.97764090317314
C       -12.84890633578535    3.90960226523596    1.01277685954347
H       -12.81007690953129    2.96680015369512    0.48745181245651
C       -11.74499014474093    4.36309458178527    1.70912822007741
H       -10.84338345498778    3.76829858911348    1.73086508935477
C       -11.78647445069331    5.57944853311391    2.37304935446090
H       -10.91906720646771    5.92953155393232    2.91318422310197
C       -12.93988986965361    6.34543632040456    2.34202527316446
H       -12.97413357716627    7.29414255639855    2.85848401976961
C       -14.04784394392664    5.89172663182311    1.65081671588417
H       -14.95795745070039    6.47788272871078    1.62328588332168
C       -15.48187499473847    2.37762106114177    0.29383959939183
C       -15.18882907106096    1.85306405703647    1.55272808159784
H       -14.87475746794882    2.51918129641946    2.34603310467914
C       -15.28882032185679    0.49564685880027    1.78728710542634
H       -15.04328256132407    0.09815680186869    2.76206357894014
C       -15.70839486262865   -0.35688961531523    0.77687274421181
H       -15.78598097136237   -1.41802773592344    0.96240050137127
C       -16.03316522243117    0.15924162721424   -0.46607340224482
H       -16.37276416041442   -0.49785351383236   -1.25334921365959
C       -15.92585973131750    1.51708403105724   -0.70371975093394
H       -16.18760712470736    1.91321575601438   -1.67175662241247
C       -18.83797187245512    3.43456808331322   -2.20566065748770
C       -18.33134889789413    2.39543274173902   -2.97513880153066
H       -17.37113876342644    2.49711229210296   -3.45781387441593
C       -19.07707776625575    1.24408704641130   -3.16560099622199
H       -18.67713422303883    0.44387682947693   -3.77149119668508
C       -20.33032844898187    1.11635333885714   -2.59276386759862
H       -20.90801184670337    0.21659272791836   -2.74614788016973
C       -20.84536173065034    2.14997920144342   -1.82509884732010
H       -21.82624469836330    2.05809401530009   -1.38050607776147
C       -20.09982730534047    3.29468952540561   -1.62786849588867
H       -20.48889331786304    4.10497081698014   -1.02153358555593
C       -18.96015075549251    6.18632341776714   -2.68917509277621
C       -18.97858433116443    7.49100483247281   -2.20370165174836
H       -18.41386897936066    7.72437378080176   -1.31018712166742
C       -19.70045616433394    8.47121847069099   -2.85599374099533
H       -19.70472409869829    9.48385394058957   -2.47855850341056
C       -20.42096322261730    8.15222832264376   -3.99619696928165
H       -20.98565617363004    8.91643812019124   -4.50990835922439
C       -20.41787251834602    6.85275239698050   -4.47557373944488
H       -20.98048892053847    6.60510248543025   -5.36403798292317
C       -19.69377322686000    5.86923963276521   -3.82661049741725
H       -19.69166060637541    4.85830612120637   -4.20643970478566
B       -16.19083373022752    4.61216274285162   -4.17513746550801
H       -17.18418396496977    4.42233400109162   -4.79519056348156
B       -14.69235642939612    3.74346980443106   -4.37949723204202
H       -14.42101939661375    2.98350676894959   -5.24728703908572
H       -14.84203791979249    2.98697227408045   -3.35130578312309
B       -14.03738723672549    3.66604080580095   -2.55049501122693
H       -13.37593844661008    2.84428768212010   -2.01151808981073
B       -15.24421145069743    6.19409223225890   -2.04056516800432
H       -15.59136305535172    6.88289976274099   -1.14178648940205
B       -15.87767781025785    6.29188928833294   -3.67125288117605
H       -16.66315459431829    7.13494217489976   -3.92057579390446
B       -14.75337749958846    5.49124209324578   -4.74272489002558
H       -14.63389669912132    5.79167421506785   -5.87633632516590
B       -13.39201546937295    4.85624641504601   -3.77407917117204
H       -12.28841846699100    4.78674238071332   -4.18763227713113
B       -13.68304032660470    5.37939131611040   -2.12656873259621
H       -12.87962360818086    5.55040815570144   -1.28257415316855
B       -14.14168028636465    6.47380347316280   -3.38788956111173
H       -13.59325819066806    7.50526573143960   -3.54190247475413

