79
CSD_code = YIJLAF | q = 1 | S = 0 | Stoichiometry = C30H44AgN4(1+) | MND = 2
Ag       11.11770784895355   -1.74003144882248    4.51477728992948
N        11.18961950571751   -0.97320015766433    1.40960474276074
N         9.33293270067772   -1.95274520144164    1.94320081995890
N        11.03717624053979   -2.49260858543925    7.62322854277510
N        12.90011683332536   -1.52649448721604    7.08762955628860
C        10.52931711568733   -1.55976103625071    2.42831907447969
C        10.41946472332688   -0.98157229823157    0.26740959690988
C         9.21673849192366   -1.61758805021544    0.61300605002307
C         8.19830052269336   -1.78794070315202   -0.31543065293617
H         7.26613747223120   -2.26228537155372   -0.05451714046463
C         8.42708152502020   -1.31509809230275   -1.59136124448046
H         7.66038376585286   -1.42706124598643   -2.34148332301998
C         9.62865142613931   -0.69477763464595   -1.93877500837442
H         9.76334130698577   -0.34526952852642   -2.95018595558953
C        10.64323194140244   -0.51428460947915   -1.02108142129910
H        11.56642118138922   -0.03087091185031   -1.29754803190086
C        12.50630522994525   -0.39325956666235    1.47920647448253
H        13.06640635166638   -0.70956591227498    0.59491006875880
H        13.00538854279714   -0.79338462394893    2.37010556575695
C        12.45400367836211    1.13559919979126    1.55103638495609
H        13.45195280909752    1.52817891400231    1.35076653675149
H        11.78502810367976    1.50941332804148    0.77352154676873
C        11.97995849193821    1.63058939842617    2.91405744644562
H        12.71131550901052    1.33135414270198    3.66967308166761
H        11.02137171693986    1.15970566674166    3.16187168442941
C        11.81600347935618    3.14432470072662    2.94327853166794
H        12.76085681611106    3.63398283064848    2.72090677416939
H        11.47996514350143    3.47272840727731    3.92317325908125
H        11.08371883096220    3.46442625832495    2.20619253572718
C         8.37309657127047   -2.74161954312252    2.66906747366964
H         8.64344969027495   -2.68281807276004    3.73282119470290
H         7.37710405054081   -2.30938960969704    2.53853713339696
C         8.37963320445160   -4.20541097767185    2.21317483960241
H         7.75589840129771   -4.77509081242865    2.90372840197151
H         7.93469448950239   -4.28595680518053    1.22025733633294
C         9.78593938017193   -4.80241917372986    2.17751728085150
H        10.31843405031707   -4.54587869448266    3.10104780198157
H        10.34635742304162   -4.37068298548235    1.34525408215224
C         9.74487946346358   -6.31604689556114    2.01705443970695
H         9.22084847551603   -6.77709923944270    2.85077976339904
H        10.75222915654222   -6.72214162270071    1.97623661443883
H         9.23086791328875   -6.58656912827842    1.09800905321226
C        11.70253677339455   -1.91508715088777    6.60261794227998
C        11.80430044657330   -2.48138292447721    8.76713569799865
C        13.01115357124823   -1.85346450195724    8.42037531114469
C        14.02771047493974   -1.68107532103832    9.35043760234937
H        14.96250106219846   -1.21226453338929    9.08884636215936
C        13.79301045775498   -2.14345261362245   10.62912859342633
H        14.55776425040711   -2.02879000014880   11.38084128900553
C        12.58778125243148   -2.75610176969724   10.97747722784276
H        12.44851176988933   -3.09723527289155   11.99108039350836
C        11.57506840371047   -2.93881958198940   10.05808601006309
H        10.64865247101781   -3.41539920049944   10.33557541734231
C         9.71880749244634   -3.06669366832719    7.54584967076968
H         9.22906810317127   -2.66102936202684    6.65179154355029
H         9.15250958671730   -2.75030811199794    8.42625870896666
C         9.75845585646977   -4.59497706136946    7.46825673571986
H        10.32465847022731   -4.98829520781428    8.31453686786058
H         8.73609396988470   -4.96798134826220    7.54633881821896
C        10.38025055099829   -5.08841087747592    6.16557465987644
H        11.41445315069826   -4.73801753401745    6.09529994370513
H         9.82037537820476   -4.66278680189973    5.32656305473957
C        10.35964277415433   -6.60773752631457    6.06574684684971
H        10.91210644566853   -7.05195667351722    6.88994584071364
H        10.81429828427998   -6.93442065380370    5.13429150499456
H         9.33820752074926   -6.97923114974795    6.10013023683882
C        13.86553881989371   -0.74810742634163    6.35798659967195
H        13.59895280055604   -0.81596636750528    5.29390665471476
H        14.85966064457095   -1.18174269056419    6.49732514519910
C        13.85971800073643    0.71972229977910    6.79979609024481
H        14.29036438331512    0.80787739679301    7.79834621028489
H        14.49656342955668    1.27994344371708    6.11322083779417
C        12.45542250547402    1.32223109434235    6.80780335383364
H        11.88011223833337    0.89954252670404    7.63452408431760
H        11.93784557595588    1.05956103044283    5.87733085965209
C        12.49961686112552    2.83706026106056    6.95712679269282
H        12.99480940938139    3.11259284156276    7.88481823900103
H        11.49329331373222    3.24749284118945    6.97320200891663
H        13.04395392520858    3.28923177550911    6.13164864261350

