54
CSD_code = YIJLEI | q = 0 | S = 0 | Stoichiometry = C26H22ClOP2RhS | MND = 4
Rh       -0.44076166465417    3.98532401403425    5.27703761649291
P        -1.70052033222914    5.67510255305117    6.04045511327661
P        -1.23293463969247    6.19257343285779    3.30548437577553
S        -1.17833487281373    4.26504895282581    2.95161207566285
Cl        0.88509124678688    2.31394916863903    4.53886521653120
O         0.29327647222751    3.02651033731250    7.99653315866746
C         0.02477910445370    3.43573517340957    6.95995871515304
C        -2.48201689799320    6.58459255742875    4.60655331652731
C        -3.16175909215937    5.22923441061525    7.02897329876298
C        -3.85125043334663    4.11720503402026    6.54611831101036
C        -4.96022202229669    3.64030509511812    7.21556088083554
C        -5.37448133223385    4.25940059962104    8.38565845332721
C        -4.67293586702368    5.34368553558127    8.88517022121266
C        -3.56396756779904    5.83112754404228    8.21356487464583
C        -0.92435712579387    7.05501941085924    6.93974035262385
C        -1.57220758530575    8.26337701935606    7.18120847778488
C        -0.91018028056269    9.28256923596690    7.84044485481627
C         0.39735377744620    9.10484171161002    8.26428655788942
C         1.04238046716314    7.90080274079744    8.03689869860482
C         0.38320469930094    6.87946582819308    7.37776320856355
C         0.30228321072070    6.95648756941885    3.92224527921789
C         0.32585327823932    8.32677520586074    4.15845733554840
C         1.46393251938371    8.90865897199911    4.68379323281205
C         2.57672267347488    8.12884893753957    4.95915537954995
C         2.56216073813550    6.76879943748931    4.69614599209611
C         1.42430464851692    6.17439390796553    4.17554734988373
C        -1.65372494398896    7.13290414732725    1.81374005939366
C        -0.62644253758653    7.41426619258647    0.91907058620737
C        -0.90808444906045    8.06038530143296   -0.26949016379119
C        -2.21343288196052    8.41847429621546   -0.56907285844239
C        -3.23862995142493    8.12549674925183    0.31573691512083
C        -2.96342157249923    7.47780576991849    1.50689407155178
H        -2.63446405964083    7.65281734017265    4.76225484332216
H        -3.42306792673230    6.09351477839644    4.33431118939421
H        -3.48485920043164    3.62131680376639    5.64992787363812
H        -5.49379609373876    2.78079317336934    6.83794783208668
H        -6.23618811150066    3.88462662838728    8.91774886332915
H        -4.98522777944634    5.80973271834484    9.80832926656765
H        -3.00844284654817    6.66524241493795    8.61756415463525
H        -2.59623029447598    8.40667177064316    6.86204790315673
H        -1.41609442389395   10.21918686660952    8.02553099748637
H         0.91063013643589    9.90625395892413    8.77448170239885
H         2.05914529098513    7.75828663633723    8.37043829439731
H         0.87709322892825    5.93419131130941    7.18151310415676
H        -0.54486578398431    8.92759760267611    3.93012853976403
H         1.48242929262014    9.97002981553534    4.88162490204708
H         3.46173908807672    8.58802579207259    5.37346138632131
H         3.43374884649910    6.16484490417822    4.89725542931263
H         1.41670027752870    5.10481955693296    3.95421257635977
H         0.38605340692519    7.12227034736966    1.16648074131582
H        -0.11215968619007    8.28215891425781   -0.96445852845477
H        -2.43360121877111    8.92303778616671   -1.49779768489984
H        -4.25539839603754    8.39934182086182    0.07607444571058
H        -3.76142053205886    7.24057221635291    2.19671121065611

