160
CSD_code = YIJMUA | q = 0 | S = 0 | Stoichiometry = C57H93N6O3Y | MND = 7
Y         3.82304602423244    7.50855755412512    2.62447882021111
N         3.77072911657642    7.96882568596778    0.32043932929880
N         2.42085363215148    9.33903896446543    3.14952667054518
N         4.36290095785534    5.22906265955530    2.87413412506142
N         4.04472286979193    5.18524658051358   -1.08050688008748
N         2.18031281201890   11.92770093193642    0.49237533855294
N         6.62888115412469    6.54145423483427    1.40813651284298
O         5.26952994111193    8.99997179362919    2.55921460541897
O         3.98709860248454    7.49505794636816    4.69886091400526
O         1.89756982176341    6.56030414815099    2.54447091562984
C         5.71091046688556    9.87391461058588    1.73201943623569
C         5.41628352197298    9.80146741396269    0.33145316913314
C         6.01501036944858   10.70979642335069   -0.56666405777615
H         5.77399909233208   10.59648268116680   -1.61257888784416
C         6.85961394699740   11.70283376282830   -0.14779671752717
C         7.07110783324038   11.82124870892435    1.23845156766841
H         7.69644951543661   12.63121530808937    1.57294741325293
C         6.52416968199864   10.97962039417385    2.17282541842500
C         6.73300655915186   11.20875873540447    3.66765592724783
C         5.36390347216473   11.39669648780905    4.33668968475606
H         4.84684234173019   12.25385958491036    3.90814113643998
H         5.48851557231704   11.56596376000524    5.40465129496825
H         4.75119984223979   10.50964610855566    4.20200715263638
C         7.43485194612864    9.99914812772862    4.29545639962362
H         6.81326931630595    9.11713130405654    4.18221761296931
H         7.60076640387292   10.17531611206645    5.35650986359784
H         8.39770509807650    9.82508324081045    3.81808543604002
C         7.57666932565157   12.45356376618091    3.96815086760041
H         8.58171006066879   12.35999599544903    3.56199326249742
H         7.66372018144512   12.57027728296547    5.04665586159557
H         7.11068846102004   13.35369814262549    3.57273529494641
C         7.54003706354422   12.68638041619313   -1.08738713266669
C         7.20086777314463   12.42049465372310   -2.55664248787294
H         6.13364405859128   12.52842234928569   -2.73595256189078
H         7.51380708882241   11.42251447248241   -2.85480355553884
H         7.72204457863795   13.13923193878534   -3.18610790741948
C         9.06150203051227   12.56884033073048   -0.91960312831604
H         9.56968769693903   13.25324848564017   -1.59602799940967
H         9.38599880246976   11.55506641554580   -1.14521368423492
H         9.36686525745237   12.80516365935953    0.09585042912653
C         7.08934236381420   14.11396549872921   -0.74684732767536
H         7.56028213676435   14.82704580808688   -1.42061983944329
H         7.35681527283278   14.38227404938246    0.27125899316205
H         6.00961477750753   14.20150780871629   -0.84967093487396
C         4.48133861996330    8.88861096409538   -0.23975577171798
H         4.33776857063242    9.05295082741925   -1.31879685758737
C         2.80483679302071    7.31586479016201   -0.54560488780196
H         2.90808072896032    7.67150120550540   -1.58191430553883
H         1.80067722695552    7.59477482243222   -0.20266608260121
C         2.85011276287565    5.78689503931756   -0.50561260440217
H         2.79815876405007    5.47642319671741    0.53969051147202
H         1.94200304893362    5.41582270817647   -1.01879698910667
C         4.15727587461365    5.41866060706546   -2.50820494065436
H         5.03354988062757    4.89237842364618   -2.88445841701069
H         4.29398576113238    6.48003854928606   -2.70207049582465
H         3.27328301038836    5.06636810137163   -3.06293985892854
C         4.05000545994463    3.75957226106635   -0.80948821841168
H         3.96447815732264    3.59231770427531    0.26312246866562
H         4.98722802384525    3.33047484413400   -1.16397077645964
H         3.21797901054367    3.23577427106051   -1.30589850046640
C         3.51414894400678    8.11957563360147    5.72129456302621
C         3.90723575209554    7.74889477011339    7.05406212908921
C         3.38473131480797    8.42644086983793    8.12564254781473
H         3.69105211444453    8.14170719211662    9.11803518652775
C         2.46063485036011    9.47916993378292    8.01119385708491
C         2.07381923801209    9.83295191230288    6.74640199866511
H         1.36572705927431   10.63233818356062    6.59069180192623
C         4.89818002678161    6.60451561973480    7.24171735838956
C         6.20986941349672    6.95720906094068    6.52643606792438
H         6.66607377798229    7.82846464942610    6.99257091801572
H         6.01594422142894    7.18889521370150    5.48265748584065
H         6.91029628610010    6.12514544084801    6.58629802627640
C         4.29380404586205    5.32170701526008    6.65235358676350
H         5.00224464124080    4.49839166593993    6.73240965977805
H         4.03582817645731    5.46578883438362    5.60693924446560
H         3.38878085577099    5.05379699499302    7.19467722096144
C         5.23281549057203    6.32660957070617    8.71205714334137
H         5.94679609112749    5.50644998796114    8.76466620186728
H         4.34703928638343    6.03357949698107    9.27121364074172
H         5.68641840401683    7.19413783793719    9.18631723339272
C         1.94991775868177   10.15592331327368    9.27419768351411
C         1.25067146312039    9.11506038251994   10.15972501791379
H         1.93454711461193    8.32590883156928   10.45924454040403
H         0.42286011919651    8.66046102184424    9.61964118145221
H         0.86043615097400    9.58665394874302   11.05968402364278
C         3.13591610965829   10.76959463162567   10.03171421126159
H         2.78801553784003   11.28120263085976   10.92714247604888
H         3.65112804332939   11.48965000949429    9.39941632417307
H         3.85057495471568   10.00816109619661   10.33131863048170
C         0.94759524656494   11.27386901956806    8.97424049987980
H         0.61185420088881   11.72236193985097    9.90749630236888
H         0.07523714394041   10.88492646955909    8.45440057809732
H         1.40403701457491   12.05466877058114    8.37044723588292
C         2.57766436514918    9.19252722318864    5.59638117051564
C         2.08852056706679    9.68108887164425    4.34752248633536
H         1.32256934047015   10.46376538081804    4.46045657011999
C         1.75732970821445   10.08861812521242    2.09459606465579
H         1.74448425523233    9.49469007408670    1.17844574857887
H         0.72304593753413   10.32008570147383    2.38638851931878
C         2.52027698068017   11.38946342976619    1.79685852167889
H         3.58700433125979   11.15666035909668    1.79277208028766
H         2.33348599103495   12.11879128128563    2.60704611431219
C         3.14916120093058   12.91584135417872    0.06390617870830
H         2.89579483246167   13.24509675078730   -0.94348048801129
H         4.13838365600263   12.46169767449054    0.04648467152569
H         3.17747710412717   13.79889637307851    0.72211143548889
C         0.83649270861594   12.46691928359358    0.45366741420307
H         0.68645743897695   13.28424397975453    1.17783156341206
H         0.11973892692697   11.67645461715352    0.66505154596708
H         0.63702522786211   12.85100530664752   -0.54570293310307
C         1.34494110241013    5.41621234622684    2.74939300272338
C         2.12540893139171    4.22715698171563    2.90351372521951
C         1.50342222506443    2.96722168364875    3.01684283521038
H         2.14948297806177    2.10816656545764    3.11662777006016
C         0.14291791632938    2.82485509330592    2.99358038706648
C        -0.61986535525466    4.00423640089196    2.91759752314781
H        -1.69122975153339    3.89975185809755    2.94424153251420
C        -0.08397455479347    5.26252559545126    2.82058592070737
C        -0.97309286635442    6.50115473999183    2.80748516493427
C        -0.75289768590273    7.27826892223958    1.50368302007859
H         0.28469812204368    7.58796180403664    1.43689196448787
H        -1.38841487862211    8.16192791642231    1.47712011591524
H        -0.99369482227868    6.65127246392036    0.64649433696421
C        -0.59656010142634    7.37529094253965    4.01165024483043
H         0.45964011425983    7.62753118794302    3.98376827848738
H        -0.79768279956389    6.84203384587078    4.93898586003724
H        -1.17857144357076    8.29555460367120    4.00861893925592
C        -2.46801374901725    6.17732461194042    2.91161431200934
H        -3.03250497918714    7.10812818170021    2.91653550912881
H        -2.69495707283578    5.64617526289659    3.83315820213020
H        -2.80675146035869    5.58704783933955    2.06269728300537
C        -0.57116403357581    1.48408379455184    3.06611900141867
C         0.40469466783502    0.30602546730650    3.13326552666011
H         1.01970107742895    0.36013161135916    4.02840866828645
H         1.05011421007932    0.28407374157038    2.25806085401770
H        -0.15329962912856   -0.62790641366800    3.16439409211387
C        -1.45413678107967    1.44496733256792    4.32105941917071
H        -1.94961331562256    0.47945371091292    4.40274341696162
H        -2.21779057933128    2.21712263868742    4.29252687463703
H        -0.84731437260914    1.59959285272973    5.21064192097626
C        -1.44186048233430    1.31007506834440    1.81350049644638
H        -1.95131736845140    0.34870881497830    1.83876964717154
H        -0.82350199923271    1.35047915815968    0.91900240988844
H        -2.19356989742261    2.09118058322494    1.74227456726020
C         3.54622763629876    4.23909758166837    2.99966657010970
H         3.97497469722237    3.25194019878261    3.23658065341100
C         5.76478137324599    4.91715384438908    3.06598905798771
H         5.89570962298190    3.86923820425057    3.38467770177903
H         6.16506303478481    5.57074045305229    3.84646839649874
C         6.53191844647293    5.13000920657955    1.75839451409219
H         7.53331024185935    4.67055845533565    1.84792045972752
H         5.99087214297320    4.61566233294570    0.96119299742397
C         6.84103801946297    6.67586008922323   -0.02686839688582
H         6.94537966484845    7.72998530623618   -0.27647396694578
H         5.98184922454797    6.26560184082619   -0.55461370280908
H         7.75405948877042    6.15084771909219   -0.35283271489770
C         7.74663511618245    7.15596890494952    2.10885724219388
H         8.70489925036712    6.68246957625422    1.83426347762684
H         7.61315386962451    7.06917987295457    3.18457877943868
H         7.79503484850934    8.21191881560421    1.85370024323535

