138
CSD_code = YIJPOZ | q = 0 | S = 0 | Stoichiometry = C45H83FeN5Si4 | MND = 3
C        -0.83395903658358    7.66409492366391    5.09445316064593
H        -1.48529807759278    8.46476065366408    4.81362558758047
C        -0.09088747958436    5.67029197175112    5.61068317046429
H        -0.09107962614136    4.61320010157402    5.74201893962719
C         1.02991039335169    6.51463967379606    5.64354337788709
C        -2.49564730747263    5.87577414824060    5.12282721507590
C        -3.02297257218211    5.68278080156531    3.84394352717584
C        -4.31438033872136    5.18309055777132    3.73740592556476
H        -4.74685036109293    5.02599271201068    2.76184930976283
C        -5.05264913942201    4.87939535526758    4.86437229892771
H        -6.05541729222900    4.49227589608146    4.76316356429210
C        -4.50819100052933    5.06338461834460    6.12040443510462
H        -5.09238612348959    4.81633488718203    6.99271951199235
C        -3.22098511318809    5.56092543589747    6.27509567588908
C        -2.22332738139672    5.98240232704974    2.59809627944715
H        -1.22504556381150    6.32485745681722    2.88379504463457
C        -2.89155077096334    7.09271342670545    1.78337331027862
H        -3.87197462925521    6.78122603810764    1.43224054482046
H        -2.28120001887092    7.34036965113524    0.91837235260289
H        -3.01624585160793    7.98994622416366    2.38653021823102
C        -2.05322902985258    4.71458508165537    1.75785398985851
H        -1.59039131608231    3.93057332023488    2.35277761978724
H        -1.41664292447166    4.91962659490033    0.90009773208952
H        -3.01112941308704    4.35262256556026    1.39337694823689
C        -2.64561331407029    5.75339604816745    7.65844836075421
H        -1.61580177984837    6.11081613094419    7.57748923132052
C        -3.45230551877032    6.80075504147216    8.43099446264963
H        -3.48022202862577    7.74252748410360    7.88674785481184
H        -2.99607578183098    6.97665809781578    9.40217327264282
H        -4.47504349400332    6.46773380351084    8.58906818295414
C        -2.61363986285726    4.42286437763116    8.41339597195478
H        -3.61838858812017    4.04739634541352    8.59035673546176
H        -2.12549637673700    4.55566160994297    9.37588137663760
H        -2.06033272503113    3.68004249188234    7.84521126425616
C         1.11462404012751    9.07317736734774    5.26024848958150
C         1.18904997072012    9.85455788628383    6.42075852136820
C         1.72375891689335   11.13017808082611    6.31643500965501
H         1.79154444045523   11.75624391152864    7.19148818804605
C         2.16532926089776   11.61844523938065    5.10033638753240
H         2.57610159805051   12.61525506962412    5.03862164699840
C         2.07889760424953   10.83721435555504    3.96382098514247
H         2.42169114384529   11.23230077067002    3.02010868319059
C         1.55065054523793    9.55554755091129    4.02115915120248
C         0.66772124581809    9.32355130654180    7.73671164133912
H         0.72903972430290    8.23070360717844    7.71454210483554
C        -0.80306954714918    9.72056802771521    7.90645574973321
H        -0.90585291954446   10.80389072575934    7.88790777344307
H        -1.18080951473468    9.35245948106748    8.85746170173177
H        -1.41389418747689    9.30385393218991    7.10919014918914
C         1.47527027838005    9.81710353498266    8.93823794011711
H         2.54232925423197    9.71022625548190    8.76014379935620
H         1.21351641681027    9.23429792044523    9.81879201176127
H         1.26088323277659   10.86112424676589    9.15458990978696
C         1.45518357471260    8.70502955922828    2.77664824637467
H         1.14483661713271    7.69574618230639    3.06196381047065
C         2.81050145279722    8.58593159222894    2.07779282693974
H         3.13194499753118    9.54144198401444    1.67091470509188
H         2.74105579550347    7.87245978642172    1.26001468798537
H         3.56560061983807    8.23453866906626    2.77627144948456
C         0.40288493941378    9.27876083173252    1.82457816629374
H        -0.56737407328804    9.33687180560809    2.31335484553772
H         0.31011227574107    8.64488964769186    0.94578645266828
H         0.68195166064259   10.27860595616760    1.50014821919039
C         3.36374334749255    7.02471158842963    5.91493609875166
H         3.11158747369618    8.01100657647214    5.49865548532913
C         3.86885980676137    7.20664688397591    7.34953457604093
H         4.11436758382666    6.21452823240052    7.73425754857593
H         3.07227047680008    7.61754083423472    7.96846917387577
C         5.08936582817341    8.11883081885164    7.38407182099335
H         4.81761637828000    9.10607738451269    6.99653958472925
H         5.43056993960157    8.24753867460538    8.41438573538953
C         6.21315342568725    7.53331385373798    6.53583217679073
H         7.07566604486471    8.20465873581995    6.53809357631009
H         6.52385120654347    6.58032995355967    6.96562654157337
C         5.73305621649850    7.30545646542644    5.10605921234563
H         6.52939718654880    6.84651262363606    4.51545382693602
H         5.49389581219149    8.27072958970196    4.64901530409010
C         4.49604576194584    6.41400764023691    5.08817024005884
H         4.16058331660070    6.24779058745954    4.06383900456963
H         4.71550697428732    5.44023446502165    5.52907939011299
C         4.24340762135180    3.06131806040086    3.85591668777009
H         4.46497108115172    3.40896201563068    4.86050728029347
H         4.75553501943445    3.70605958300855    3.15044943557874
H         4.65840412131680    2.06504116120167    3.75233462363283
C         1.84809850829188    4.69688091445129    2.72175167705810
H         0.79431860882904    4.70221939470794    2.46699370772786
H         2.41173057800044    4.83751752436518    1.80453953646020
H         2.04000793624107    5.54140084929031    3.37115660028267
C         1.87016090277381    1.65436976784036    2.42001928955633
H         2.24468399169850    0.70060491211777    2.77285055875263
H         2.27706890402561    1.82239446090201    1.42799143872841
H         0.79312319727992    1.56947490640536    2.32444236500609
C        -1.32668330705999    2.13123422334461    5.01406895854199
H        -1.75185021224584    3.10042317897408    5.25387105675718
H        -2.01017435614896    1.37513765837934    5.38797547034281
H        -1.30860045804887    2.04338220473612    3.93260147065911
C         0.82150352497612    0.01586786914363    5.41558149468588
H         0.58986615926007   -0.26713340170474    4.39483702060593
H         0.23709030685420   -0.62204768076140    6.07181537611600
H         1.86893340282881   -0.20483062125238    5.58894386815583
C         0.44699559747057    2.15106192529190    7.61427751466304
H         1.39100505743062    1.80259420267187    8.02177544209595
H        -0.35412348121665    1.63275653545227    8.12973741094186
H         0.37270327663859    3.20858854775491    7.83977505500822
C         4.06514792784250    5.34720060104985   10.66448653491771
H         4.98256284076841    4.80316667186731   10.86007160907558
H         3.63775116043032    5.62380621266217   11.62343010652165
H         4.33206613402518    6.26148286904781   10.14641762162395
C         1.34008021608280    5.35221102196840    9.14290419973318
H         1.31512818075744    5.43510528897141    8.06009090801281
H         1.40464359114329    6.35050998079886    9.56189280464689
H         0.40402700602142    4.92047457508274    9.47735833578847
C         2.22020453777736    2.92183058654976   10.86125323346883
H         1.59186977947140    2.19142691007356   10.36420888655130
H         1.64044636812276    3.35963494698662   11.66860976602048
H         3.05252047261455    2.39177524211664   11.31025730614630
C         4.37623296299637    1.24475891635172    6.86595831203425
H         3.98547743135778    0.40720060380586    7.43442806139387
H         5.20040724128392    0.87544096075257    6.26610751305251
H         3.59190582617651    1.58706276153454    6.19463622132638
C         5.53769447051945    1.88876409910064    9.65428704847218
H         5.81553061635586    2.64483883293701   10.37968020098226
H         6.41049385523445    1.26858717678870    9.47604963075363
H         4.77721181735995    1.26234009696858   10.10645202528018
C         6.43484370839461    3.57919817498567    7.28137947408384
H         6.22398167472149    3.98397170594587    6.29823826570386
H         7.27849474796560    2.90331431240472    7.18179628090234
H         6.74740158890241    4.39909166899009    7.92034140650565
N        -1.18212339026983    6.39669249002888    5.26027668175231
N         0.50050030749320    7.79493267343284    5.32805940941583
N         2.23582592930227    6.12739089872405    5.90244195251592
N         1.62197423683653    2.97521971017093    5.16654509399299
N         3.54028221140922    3.70135980059083    8.18265679750941
Si        2.34773930419771    3.07320911987504    3.61065134694591
Si        0.43890404246971    1.86630222917089    5.72996580614530
Si        2.83610870990653    4.27673304095135    9.65246338382084
Si        4.91946842827779    2.66946990421561    8.02167888205679
Fe        2.59805338338077    3.79741167592323    6.60012254949450

