106
CSD_code = YIJPEP | q = 0 | S = 0 | Stoichiometry = C37H62FeN4Si2 | MND = 3
C         0.50398248466706    4.06064673106829    1.51499290259079
H         0.50011788446516    4.85687053745966    0.77535283249974
C         1.31281302477265    2.09946335465825    2.40354041663303
C         2.06038339271701    1.04822340328705    2.43587646450780
C         2.49138819730166    3.09750348661192    0.49359946050642
C         3.64314563912411    3.82899703426521    0.79952473262147
C         4.69142063672306    3.81312078126074   -0.10972778142945
H         5.58574430227702    4.38205146484224    0.09160696148939
C         4.60844344800603    3.06786452188598   -1.27121784723393
H         5.43574542754969    3.06167991798391   -1.96558171766953
C         3.47574844934252    2.32464308530799   -1.54165323902411
H         3.42982238122049    1.73734382327764   -2.44581249093665
C         2.39773835473542    2.32744794695093   -0.66677281285962
C         3.73652577039336    4.62085408323721    2.08428982917728
H         2.95224758116389    4.27273706071587    2.76551853581221
C         5.08187175479376    4.41528139731729    2.78303461335801
H         5.31573477866218    3.35572313003906    2.85720613208119
H         5.04346441602040    4.83106683632016    3.78734909739905
H         5.88758729797355    4.90816180976169    2.24486286588566
C         3.50433329227605    6.10833528490715    1.80418051426431
H         4.24992795544493    6.48507404578369    1.10704834963081
H         3.57310623857632    6.67887254876797    2.72765779390591
H         2.51915235099421    6.27005304912157    1.37251083466970
C         1.16168149997018    1.51313498898276   -0.96349378821923
H         0.42839474978466    1.68575574324532   -0.17029573300592
C         0.53426819864333    1.94035081617656   -2.29228563744659
H         0.33026467056307    3.00922617605247   -2.29039610714954
H        -0.40173577332467    1.40892417345585   -2.44976292472049
H         1.19564241248012    1.71966649074164   -3.12640690932822
C         1.49901067231634    0.02078334938419   -0.96406344525295
H         2.23119782010050   -0.21223878093991   -1.73362851398192
H         0.60140162738602   -0.56337140595367   -1.15385397952194
H         1.90214200077116   -0.26720458984315    0.00378270187514
C        -1.42479574239201    4.83561023255721    2.61481962094674
C        -2.37709242628441    4.91599405695995    1.58200375004184
C        -3.44146474643960    5.79465496841487    1.72640273143307
H        -4.17301534223991    5.87716570334529    0.93673918230760
C        -3.58642172038846    6.57017128484101    2.85994305728322
H        -4.41741220562553    7.25455672435805    2.94605234941913
C        -2.66827414927658    6.45704053865421    3.88706431223653
H        -2.79174810395702    7.05837892626996    4.77523910877291
C        -1.59016782141141    5.59355315474759    3.78577192109944
C        -2.30137582320587    4.04940012024201    0.34364859933536
H        -1.47952000405857    3.33652634375765    0.46075332720980
C        -2.03595007208686    4.89596235363949   -0.90422403161509
H        -2.84317932912109    5.60721117247612   -1.06287783250267
H        -1.96334508685297    4.25793713020067   -1.78255464572326
H        -1.10847132928560    5.45686482386815   -0.80737436258066
C        -3.58580914095834    3.23593694069267    0.16120913164999
H        -3.80756767834994    2.66832494223355    1.06113665263477
H        -3.46624468031179    2.53874560411505   -0.66550767179594
H        -4.43388775229679    3.87943581079790   -0.05794877430228
C        -0.59022470345558    5.48856446834965    4.91273654488512
H         0.14630324774013    4.71437487026495    4.64780111503209
C        -1.27422554698682    5.04498308451516    6.20567654493225
H        -2.07987396731554    5.72157369436691    6.48164640323318
H        -0.55275753144135    5.02370328186067    7.01895452764265
H        -1.67700740587448    4.04228322574692    6.07802776910512
C         0.15087396067322    6.81459252668137    5.09990217227686
H         0.62691599582847    7.11792391717560    4.16954805391099
H         0.91914921649433    6.71265584544295    5.86338119639999
H        -0.53346230896176    7.60275060500922    5.40617723965296
C         3.82777757822357   -0.41845589554915    3.10418280936499
C         4.91581351001918   -0.34616117303161    2.02240734720453
H         4.66635112185141   -1.00876280552546    1.19704937549503
H         5.87841031661176   -0.64137532600206    2.43335597779468
H         4.99108170907102    0.66830558559041    1.63364668634212
C         3.68569216612546   -1.85804646444269    3.60532471050117
H         2.92347478829897   -1.91140395301963    4.37893061327004
H         4.62816732265016   -2.21206245848529    4.01595862484786
H         3.38959261329685   -2.50761736365289    2.78561962434151
C         4.17659290699464    0.52054007699992    4.26250312690770
H         4.26986490151708    1.54158987205780    3.89870058783780
H         5.11552667967137    0.22201549559219    4.72339587369153
H         3.38820686670806    0.49876235900587    5.01002987335613
C         1.82341825521682    2.82038613965413    6.20241282040214
H         1.88489258397616    2.87656448400403    5.11224388521510
H         2.80332442146743    2.54441931710700    6.57458843921900
H         1.59972701627683    3.81167773798929    6.57786221547053
C         1.25941818032604   -0.18965969151145    6.85627658278174
H         0.59218598376607   -0.86747357684281    7.37791058515354
H         2.19632720412487   -0.16696789169998    7.40429412139272
H         1.45123721523054   -0.61290915115911    5.87587874038339
C        -0.30081885848224    1.97342378539976    8.39031487334294
H        -0.82118973242662    2.92435250908658    8.37617170129507
H         0.45485066629713    2.01832554106578    9.16813549208649
H        -1.01941651358007    1.21146371113528    8.67443056255335
C        -1.96697687864898   -1.12863201943761    5.41367919194851
H        -1.11854541403947   -1.57732064910087    4.90866042247234
H        -2.86274952204867   -1.64551101020400    5.08467723073958
H        -1.85336418241912   -1.31024387373556    6.47696210731337
C        -3.56099262188992    1.46603432317151    6.01339936343418
H        -3.38748575946985    1.42532096037932    7.08373540260989
H        -4.46991660945144    0.91075301748976    5.80502294032532
H        -3.74008524732013    2.50320001354512    5.74750315307530
C        -2.29917747903402    1.04808356136131    3.17913285715564
H        -2.50206032049320    2.10122136093655    2.99386433024049
H        -3.11540717471299    0.47421969845170    2.75645031317031
H        -1.38829287862953    0.77654009897009    2.64305713309445
N         1.41305818486277    3.09849506130963    1.41757045217024
N        -0.31944960862036    3.98425472915432    2.52375869609259
N         2.57663667380013   -0.06798620966617    2.46800558136619
N        -0.61939173519598    1.62297838275179    5.36946300109522
Si        0.47893662418463    1.54986503233313    6.69790355024138
Si       -2.07235679868710    0.74243270906964    5.05324619338110
Fe       -0.05814889576595    2.44464530070636    3.84935272553093

