36
CSD_code = YIJQOZ | q = 0 | S = 0 | Stoichiometry = C13H17Br2IN2Pt | MND = 6
Pt        0.20902453494391   10.50619046608083    6.72168827882858
I         1.38699752519226   10.41293306617897    4.26322489495626
Br        2.45683918219100   15.77850104576051    5.11775915857055
Br        6.06731783845021    9.33990460786047    6.97755309750139
N         1.46787985315500   12.36623399331327    7.17845985626658
N         1.99268357403434    9.22626943552468    7.46274723437329
C        -0.88572378379152    8.82326966953683    6.28131128249962
H        -1.50942808374266    8.47478050988711    7.10532965190027
H        -0.17355885528365    8.03720408275600    6.01350441148648
H        -1.52534483876015    9.00739417984762    5.41617934662014
C        -1.39475130385476   11.65169160252714    6.13319075967416
H        -1.40943817754034   11.71778156391993    5.04393060425086
H        -1.27906062497035   12.65523624369415    6.55156798907334
H        -2.35011653308686   11.24849960855701    6.46776336868913
C        -0.58566503847182   10.59589200231503    8.62797928723094
H        -1.59770360893818   10.20594066269160    8.71895255293784
H        -0.60331722780945   11.63337194046279    8.96705873529806
H         0.05454605186758   10.02733729665515    9.30738586729894
C         1.55165633828953   13.33451135769470    6.27653060243028
H         0.93567331559534   13.25026400830789    5.39132011614544
C         2.40686662003334   14.41619130717561    6.43751707487198
C         3.21357014117918   14.49347312598015    7.56334404762743
H         3.89521365394211   15.31872025077893    7.69999889232485
C         3.11032054120751   13.47865943018172    8.49985921648828
H         3.71280409021339   13.49067259961131    9.39427834364796
C         2.22048672069292   12.44204932481311    8.27149033236104
H         2.11095925105115   11.64316762091363    8.99265579809260
C         3.23210810646881    9.56367976602596    7.13807544975610
H         3.38451568871950   10.49924695231652    6.61780120696859
C         4.31856174383160    8.75139527068941    7.42652548925575
C         4.11644723121805    7.52948963682625    8.05005225971040
H         4.94644244068563    6.87548223621807    8.26838959968410
C         2.81615678991199    7.18574833586698    8.37891682552218
H         2.60138268374285    6.24620052006868    8.86245813023054
C         1.78897111432517    8.06587077813274    8.07828835722521
H         0.76588304531600    7.82904550085642    8.33521188021544

