73
CSD_code = YIJREQ | q = 0 | S = 0 | Stoichiometry = C37H30HgI2OP2 | MND = 4
C        14.38248378170854   10.83896501931348    2.14813616455796
H        13.75737178712481   10.11902565871501    1.63200187596767
C        15.42358775935187   10.35049440337462    2.95556377755885
C        15.65965299271635    8.96689045536389    3.10885453162030
H        15.02229917814318    8.26948941778718    2.58394292748541
C        16.66955749183878    8.51929700824137    3.91217722333222
H        16.84369803670150    7.45996487341883    4.02955892250713
C        17.48855857606515    9.43202985664353    4.59651757004220
H        18.28066970451001    9.05920354471059    5.22920726344144
C        17.28501841839140   10.77794876944779    4.46814933784946
H        17.91120009167694   11.48234213348888    4.99668298147182
C        16.25152426928030   11.27456185998369    3.64900093857884
C        16.00554346142497   12.65701105090664    3.50173011091878
H        16.63478002982555   13.35513663967453    4.03454409166709
C        14.98584243673864   13.10635959232228    2.71785737371711
H        14.77538761413454   14.15965113910571    2.61085992712323
C        14.15399361822851   12.19387252467918    2.02968308738030
C        13.02829585987375   12.72061666554971    1.26242829092994
C        12.09992269658377   11.93665396329639    0.51348503469347
H        12.35258012382793   11.06896900003733   -0.08628481408736
C        11.98093929785956   14.47291901465157   -1.22020734460887
C        12.09517425762258   15.81694240863237   -0.89552714617981
H        11.68903106050862   16.18194550783420    0.03622153339730
C        12.75152019527350   16.67043990914635   -1.76367097238439
H        12.84171388100564   17.71875328007238   -1.51979381785608
C        13.29999506473618   16.18318882842274   -2.93947736526572
H        13.81528290315440   16.85396043152448   -3.61072846506630
C        13.19548678322603   14.83761360560715   -3.25472186160453
H        13.62941906819946   14.45847682017908   -4.16801708185877
C        12.53285103714593   13.98019726798664   -2.39658177634634
H        12.43407606901633   12.92660917594359   -2.62842370268848
C         9.97236972620172   12.54393370574956   -1.35184835947662
C         9.20553333584935   13.43073314293940   -2.10518308226281
H         9.34028023025727   14.49784207035053   -1.97275601781293
C         8.29244270960771   12.96082081414356   -3.02713934597936
H         7.70129258935584   13.65754217724019   -3.60319355075548
C         8.13768080061825   11.59562173727197   -3.21256924617483
H         7.42198844246318   11.22763803711458   -3.93232083824747
C         8.90571722296503   10.70802273905521   -2.48115590650506
H         8.79460960800700    9.64359920517743   -2.62266704858173
C         9.82265803293942   11.17937064486796   -1.55700563846484
H        10.41476944283918   10.46994298094618   -1.00032567570380
C         9.96835246771314   14.14430826929004    0.95159589990296
H        10.52694873287245   14.68178852314050    1.72149947417470
H         9.38329294465607   14.84662188112176    0.34728089083741
C         8.14827024073612   13.86522657372314    3.12488037788046
C         6.80011763037994   13.70234707286400    3.43957422497486
H         6.17442846507057   13.07453605301836    2.81952242348324
C         6.26483625155154   14.34288112931756    4.54090445051302
H         5.21780337774114   14.21779044119624    4.77429536095345
C         7.06948072313880   15.13026611516720    5.34827067348368
H         6.64994972432681   15.62368164842469    6.21198966650644
C         8.41625071438086   15.26904897010513    5.05708798889845
H         9.05258848213074   15.86167978757084    5.69664623996510
C         8.95994632249910   14.63487305783595    3.95565980274881
H        10.01954132533879   14.72904451505453    3.76516924199288
C         7.46232210904514   12.79488639871340    0.58976017659485
C         7.04842928262572   11.53742916288321    0.16698814308429
H         7.56504216747379   10.65391874057560    0.51821434833143
C         5.97675770652106   11.41807659950629   -0.70002497903982
H         5.65941123056323   10.43956924158918   -1.02701048488214
C         5.31574624247722   12.55087498185497   -1.14079590829267
H         4.47965210162782   12.45932265196359   -1.81791648804589
C         5.71731515789019   13.80582908841012   -0.70746623252849
H         5.19095214660663   14.68772498260058   -1.04240112620778
C         6.78459973998719   13.93261857726648    0.15914483673715
H         7.08126240525656   14.91035132929413    0.51627585312350
O        12.70775822833547   13.94335692140412    1.28217288963326
P        11.14779383519625   13.26986254902168   -0.15639344185150
P         8.85641741281690   12.90985959379507    1.75054753232023
Hg       10.66612642419789   10.94097191069672    2.41510051870082
I         9.97917357012829    8.57007517748922    1.46462682056449
I        11.46383314971104   11.88588097420925    4.74489691913385

