99
CSD_code = YIJSIU | q = 0 | S = 0 | Stoichiometry = C37H57NP2SiTi | MND = 5
Ti       10.99298333577528    9.43765671991580    1.50663965707189
P         9.45511428933288    9.64043100469958   -0.49588944201677
C        10.31596389044963   11.11968308098456   -1.10755663028492
C         9.73615225156738   12.12546446936614   -1.86928799427414
C        10.44881710010524   13.25194520961344   -2.25135293780036
C         9.81668745784432   14.31238069898897   -3.10239632535623
C        11.77053905597272   13.36528567453942   -1.82858773481252
C        12.36642814205871   12.38636182106937   -1.06636448326882
C        11.66488288344853   11.22741991639884   -0.68610681628179
N        12.20639431375159   10.26111092085622    0.12532037013875
C        13.54836012944388    9.99706371138778    0.06027044290588
C        14.28328114045081   10.12611186444336   -1.13549008898126
C        15.63745685612409    9.89494392300258   -1.17776684676218
C        16.34622539234677    9.53740117437154   -0.03237126721982
C        17.83300330207945    9.34773023762773   -0.08285336707222
C        15.63200986291679    9.36184919474210    1.14067155284493
C        14.25580639084665    9.54790124630211    1.20100757721652
P        13.25011794857177    9.24211693963917    2.68753533919333
C         9.65201536724492    8.46507203318564   -1.95452171477398
C         9.13057912265067    9.01815572816603   -3.27646630304564
C        11.13125684573464    8.10160361605518   -2.06882079691722
C         7.64509809247841   10.08837150894939   -0.54501592184548
C         7.40633604941625   11.13539421406389    0.53822386969174
C         6.82394606645175    8.83125900900542   -0.27004877719163
C        14.02455539873846    7.71863993260397    3.50148076707034
C        14.39954129647194    6.68476157663702    2.43899200096760
C        15.18387484641298    7.94640549802674    4.46904915024803
C        13.77220334678860   10.68138801416481    3.76357902904695
C        13.59578168624854   11.96643280760368    2.95958182341856
C        12.89380555243676   10.71732369282364    5.01008197310745
C         9.98480501753216   10.42435316956302    2.81148864210589
C         9.78434268257858   11.80786919495690    3.01204774284806
C        10.22474760440653   12.77247054333799    2.07004279815728
C        10.03382349146616   14.11905543647251    2.27044939699276
C         9.39880214549211   14.58426040650309    3.41596739730710
C         8.94940326428404   13.66596695120789    4.35592626324254
C         9.13040940780189   12.31657210668083    4.16266715868508
C        10.57410843616868    7.37241326392283    1.69010710090133
Si        9.72802467171794    6.73318038145533    3.24197978437395
C         7.88226805356928    7.25766973903239    3.22209907503326
C         9.74692733537591    4.81892493766690    3.42705563470633
C        10.55399787850466    7.42127845846862    4.83656286689675
H         8.70331702592381   12.03812656142563   -2.17623760079744
H         8.74041121428275   14.34337848603458   -2.94731009894553
H        10.00076712899022   14.11065534935643   -4.15917063848765
H        10.23287688698762   15.29042347131325   -2.87113529435177
H        12.33811166830509   14.24687828078320   -2.09237240433998
H        13.38296675100356   12.52007541874052   -0.72099920739443
H        13.76359013880525   10.41323805688735   -2.04009250807421
H        16.16529548194389   10.00263480806730   -2.11529260796381
H        18.10172704888745    8.63267041261053   -0.85985847596018
H        18.32958912899714   10.29044719435677   -0.31398719316057
H        18.21280571938886    8.98447890459006    0.86941503965508
H        16.16781773029608    9.08995797632976    2.03842746042288
H         9.08961429681131    7.55955077294483   -1.68977663241250
H         9.61406831850343    9.96513746538450   -3.51058312991016
H         8.05446381446927    9.17128015315562   -3.25009908720490
H         9.34941922463473    8.31654769764570   -4.08079112686128
H        11.27477413638656    7.30426551048480   -2.79780894624265
H        11.52723525182295    7.76473147339113   -1.10671966203568
H        11.70716927076426    8.96652562300889   -2.39655508434090
H         7.37380036668942   10.49757019752542   -1.52413456192583
H         7.71745837435191   10.73995804304947    1.50816444781597
H         6.35213990235230   11.40361361946954    0.58919576233990
H         7.98504388880940   12.03873217073892    0.34782553706384
H         7.19112883071178    8.34083453169670    0.63166299975166
H         5.77682415574873    9.08984200234600   -0.11943519226571
H         6.88110561599887    8.12751805506793   -1.09852466081291
H        13.18827363132888    7.30482557324998    4.08006076997278
H        13.61364858848996    6.59520675979321    1.68864479426467
H        14.54009728392237    5.70871541106262    2.90153969999480
H        15.31967253762648    6.95564485690939    1.92751173081518
H        15.49529800164936    6.98479148499660    4.87652480960318
H        16.04669833600500    8.39114683739739    3.98034061127110
H        14.89208898510494    8.58089174267858    5.30156739854173
H        14.82831234345806   10.56463296366703    4.03593428477047
H        13.78854468829528   12.83390102872360    3.58930639695912
H        12.56984841558272   12.03597210532462    2.58808093191440
H        14.28230997129811   11.99814478342446    2.11396253957266
H        13.17730087812651   11.54946579771575    5.65281113832539
H        11.85227400603159   10.85132721501601    4.71080174306563
H        12.97457793568626    9.79621861701533    5.58574363391512
H         9.50170203307310    9.81498650779680    3.59644329484490
H        10.70834557167001   12.42589087322102    1.16186951561698
H        10.38049332233356   14.82329859702364    1.52492580929558
H         9.25257699125843   15.64310593791604    3.57035073212138
H         8.44938985008673   14.01662176356398    5.24945461203302
H         8.77096268893837   11.61511675853095    4.90623084143320
H        11.55162832248782    6.88094109037388    1.56527525558754
H         9.96382007001783    7.08679766136061    0.81767941651880
H         7.77966689879050    8.30812648646028    2.95995350175689
H         7.31549975544652    6.67446918927216    2.50190641058208
H         7.41728684873831    7.10965993603637    4.19193488489617
H         9.23695453348123    4.33667148253708    2.59877366401343
H         9.25426053190998    4.50372055185002    4.34149722289655
H        10.76204159087860    4.43333585339351    3.45307128489149
H        11.09908894957663    8.33941882611562    4.62003323707451
H        11.24500778668973    6.70460581626681    5.27176214744827
H         9.81232987692698    7.64859522668708    5.59647058617251

