96
CSD_code = YIJTER | q = 0 | S = 0 | Stoichiometry = C37H53F2NP2Ti | MND = 5
Ti       -0.47565570148757    2.82295328850059    4.06622364594406
P         0.56985759582230    0.76623920025380    5.04756372610004
C        -1.01991611367862   -0.10385329814251    5.17103812121373
C        -1.28530736690072   -1.14647445138963    6.04808067996036
C        -2.49236059194226   -1.82787358919097    6.02103632908960
C        -2.77951912859349   -2.95035299558168    6.97391302435893
C        -3.44065462252570   -1.43826718286417    5.07780587490507
C        -3.20959280981250   -0.39546755997366    4.21036741238642
C        -1.99827164523592    0.32302874501036    4.23464176872645
N        -1.76435128519465    1.42915862546461    3.47627329746457
C        -2.47918354730322    1.71680931863120    2.33881342999759
C        -2.77849415322157    0.76503382938673    1.35212705221172
C        -3.41955253625284    1.13048083888282    0.18719646364891
C        -3.79410472191209    2.44905883575888   -0.05488652021187
C        -4.45513935533700    2.83731946391792   -1.34406523537691
C        -3.52346235917096    3.39978501162266    0.92041674774022
C        -2.89015698270634    3.05430870460352    2.10512283609192
P        -2.55056373699915    4.15983033603406    3.51009444873882
C         1.38504147507888    0.62955429277299    6.72368960589846
C         0.53545931713311    1.28326819053243    7.80793167205497
C         2.73769673720192    1.33071937624351    6.61033384828031
C         1.54260799534689   -0.48935185628746    4.02937675982676
C         1.91885624226534   -1.78134728193394    4.74814642284140
C         0.70860734139260   -0.81116090419611    2.79017242544696
C        -4.24065752837923    4.18354600707499    4.36336118366450
C        -4.69075907952141    2.75193490565692    4.64362478384202
C        -5.33175115759755    4.91466650482407    3.58583895732676
C        -2.44696945108539    5.88853824435489    2.81442313184932
C        -1.23015795715615    5.95412967414516    1.90306248826668
C        -2.27435715322514    6.84842748175581    3.99063271488729
C        -0.03314199045937    4.14054281639593    5.63837289151166
C         0.70534517411218    5.27365666032746    5.99280160801521
C         0.37322037061978    6.00666980616825    7.12165527672219
C        -0.69165482574314    5.68286588170430    7.94435348955845
C        -1.44988201346133    4.56625979625708    7.62730939646710
C        -1.08430836571840    3.85616683450018    6.50228366086255
F         1.11583926940982    7.09859439288701    7.43641286615237
F        -1.81397697958830    2.71233864479673    6.16929091282852
C         0.89220077446619    3.32127245980431    2.83515566492187
C         1.35437909131781    3.11297019113594    1.41823033423878
C         1.85915838975648    4.42895910734408    0.79249780986990
C         0.24198317073326    2.54613249984039    0.52904070474644
C         2.54928537955289    2.13623277285372    1.41413859454804
H        -0.53741488170890   -1.43625977261285    6.77424498625417
H        -1.89878234161383   -3.19572906846938    7.56295738133443
H        -3.58335010202762   -2.67434370861711    7.65692738550598
H        -3.09586558567011   -3.84170534527120    6.43316879866949
H        -4.38682958714802   -1.96041807234167    5.03508180050772
H        -3.97968006131959   -0.10420788480899    3.50959168035044
H        -2.47546432366193   -0.26291000048332    1.50359284897390
H        -3.62849659810085    0.37691720224421   -0.55946661240171
H        -5.05225267402265    2.01690740214540   -1.73554587909456
H        -5.09692310925850    3.70500368844284   -1.20718877280542
H        -3.70166408779442    3.09041764204404   -2.09111556064526
H        -3.81351946376276    4.42782544960046    0.74550300323386
H         1.52886368346612   -0.42649454825257    6.97396670472009
H         0.95477052961405    1.07236636635131    8.79139790682003
H         0.51986962452006    2.36439887656854    7.67309472292905
H        -0.48812218186303    0.91123930200156    7.78385801458313
H         3.39093181188408    0.81713866232280    5.90692942209105
H         3.23543843355030    1.36529415374510    7.57850751877011
H         2.58993816728305    2.35488143774454    6.25706035221561
H         2.45798654441233    0.03175303741094    3.72129412799180
H         1.03728265032846   -2.25242255320938    5.17853538207114
H         2.65611909675226   -1.61608507481808    5.52984894975890
H         2.35080579283681   -2.47602695290692    4.02841140670512
H         1.31819680357959   -1.29474545653345    2.02752118961351
H        -0.10726702911280   -1.48412150324862    3.05278882641263
H         0.27995088443678    0.10385523442100    2.37449004138667
H        -4.07325678491582    4.69282576832948    5.32269119508604
H        -5.58307127175388    2.75470485632400    5.26895050239017
H        -3.92149098220712    2.17882351124815    5.15649281675263
H        -4.93246757702723    2.24665500205366    3.70919502735760
H        -5.42498982991351    4.50246088943167    2.58280248315155
H        -6.28626026312370    4.77896967910821    4.09363543481452
H        -5.14281000271681    5.98271173686259    3.51766665381897
H        -3.34964070019735    6.14297628067315    2.24969280054577
H        -0.36749807347693    5.53002532246267    2.43068296336798
H        -1.01175382935563    6.98420938592725    1.62373136617556
H        -1.39892599400723    5.37731175508938    0.99499782094858
H        -3.13715713199005    6.83194651806073    4.65429558780572
H        -2.14091004024267    7.86886124386644    3.63387325073178
H        -1.39065073725927    6.56809640932228    4.56732896004817
H         1.54942960121192    5.59844236542602    5.39469438263452
H        -0.91422233770003    6.29020014412389    8.80682495702621
H        -2.28843009070650    4.26371809256215    8.23638418033139
H         1.66038541348261    3.91679208550428    3.37038595446394
H         2.27570240299823    4.23997588848149   -0.19631578239123
H         2.63848449386409    4.87168309795543    1.41034584916277
H         1.05267356642786    5.14864384797371    0.68825280824574
H         0.60443898672361    2.38973622226497   -0.48639567991430
H        -0.60275869358452    3.23229806160688    0.49298261013143
H        -0.11559449627882    1.59322066161538    0.91662107448936
H         2.24528604229842    1.16379122418845    1.78746490976564
H         2.93820063674058    2.01427918724634    0.40378627193952
H         3.34893053315692    2.51680862914279    2.04757566715561

