52
CSD_code = YIJVOF | q = 1 | S = 0 | Stoichiometry = C27H21AuBrNP(1+) | MND = 3
Au        5.29314581552904    5.29680865964820   11.71770936021567
Br        3.23601167198060    7.31593631370107   10.91293793835839
P         5.91802855575501    5.78164550063950   13.83951294016608
N         4.79093664662860    4.75053464143090    9.67506912665232
C         5.45218825984365    3.68732940589541    9.26430314454926
H         6.10765225425525    3.22359797616019    9.98526570727889
C         5.34649405714002    3.15018237075109    7.98036978082815
H         5.92097785876578    2.27754534486337    7.71800682369180
C         4.50823011991414    3.76106365816854    7.08844675411332
H         4.39224744595614    3.39115411291018    6.08099486184518
C         2.89967387668668    5.53745786842109    6.58726654615626
H         2.80742884670333    5.13962190352055    5.58865564503583
C         3.77530917032114    4.89662067747213    7.48657783836792
C         2.18629852110281    6.63405915268856    6.97885192434370
H         1.51277422069879    7.13150825424135    6.29982644022973
C         3.17626696414852    6.51716394741343    9.17925135851857
C         2.32851347626528    7.11998745562200    8.28252520424694
H         1.76211447065523    7.98409622726273    8.59358152371879
C         3.94082659179136    5.37917629658893    8.82368305143388
C         5.67044782502297    4.43366926738453   15.02054778779972
C         4.69046955882298    3.48378657878922   14.74786704447918
H         4.11780492518235    3.55929202074834   13.83089187661548
C         4.45528909528935    2.45955330790229   15.64641008300425
H         3.69311252274982    1.72404724251121   15.43851137970415
C         5.20244814209825    2.37717983958315   16.81116888467782
H         5.02211875080191    1.57449726024354   17.50942343603098
C         6.18291946259017    3.31957486047519   17.08063788587384
H         6.76411908844892    3.25065653923437   17.98747048230164
C         6.42099276183977    4.35049346560008   16.19004230449502
H         7.18552949036688    5.08681356524332   16.39548280654479
C         7.65523790171031    6.25094111619284   14.03266289703753
C         8.59835729107648    5.52631806909041   13.30849235769487
H         8.26472422669552    4.73939608655245   12.64260558437714
C         9.94284570224347    5.81393440838068   13.44542184866367
H        10.67536718606849    5.25127477233266   12.88692122967546
C        10.34770181562205    6.82989355744743   14.29785239886722
H        11.39727429737293    7.05788050967152   14.40135646899878
C         9.40969403955115    7.55554482108068   15.01473248626538
H         9.72856398927573    8.34663353181804   15.67619307114256
C         8.06172154607660    7.26979074133685   14.88840901533264
H         7.32718526661251    7.83449287260780   15.44595426655083
C         4.96816264927837    7.17910992830830   14.48349435944817
C         4.11720360093104    7.07547412760160   15.57714734780503
H         4.03416657945966    6.14127797563748   16.11471962254466
C         3.38071454364769    8.17942556703169   15.97191180370258
H         2.72092101557008    8.10425230281345   16.82278812454201
C         3.48593698107868    9.37373919240310   15.27864167906575
H         2.90744225483196   10.22937344170141   15.59079698227957
C         4.32959317427748    9.47442280587297   14.18196563887492
H         4.40873367511925   10.40503253426023   13.64156173030296
C         5.06557142573253    8.37843192427310   13.77845283461708
H         5.72871039042584    8.44080599842125   12.92442831095851

