21
CSD_code = YIJZOH | q = 0 | S = 0 | Stoichiometry = C9H5ClMnNO4 | MND = 6
Mn        5.99887943494034    6.37285118061850    7.90629098384475
Cl        8.11743968190096    6.94702455729375    8.45596058413629
N         6.93968957701965    4.70782876845454    7.08317459940981
C         4.38000779046820    5.94180890747897    7.28507935806522
O         3.33277833682125    5.65480987809737    6.91191987219866
C         5.39371274236754    7.75928318882877    8.86814900512008
O         5.08615107100352    8.65327829508539    9.50701692951646
C         6.49345684087515    7.47912812393673    6.57187447258279
O         6.94099438951182    8.19927057875983    5.80292122630612
O         5.99854943255532    5.21366829423723    9.39395442432663
C         7.40393596453601    4.48825536259881    5.85965137353389
H         7.09786458259737    5.18626157400860    5.09119766309155
C         8.24343526808343    3.42851587129287    5.55603600401692
H         8.59805840948285    3.30019316021699    4.54621349758525
C         8.62399047294866    2.54932917351945    6.56426472542255
H         9.28629944939759    1.72380810099829    6.35378667447431
C         8.13686897005089    2.75643035653944    7.83854384024102
H         8.39941332039066    2.10894846259857    8.66027328359560
C         7.29658792574974    3.84818753666704    8.06329352222911
C         6.69665940397424    4.20077566644545    9.33232124207873
H         6.83862693532445    3.56414296232399   10.21217671822438

