48
CSD_code = YIJZUO | q = 1 | S = 0 | Stoichiometry = C16H28ClN2Ru(1+) | MND = 9
Cl       15.80890727065410    4.27436661398370   -0.40231087627681
N        18.59117025837464    2.88349504562628   -0.68672230079438
H        18.65484407109861    3.14021445379576   -1.67508898518200
C        18.51217033302873    1.53400097413867    1.89659948835580
H        18.06277443209128    0.55278721191818    1.71956814952136
H        18.76274003793875    1.59913848602709    2.96334878447044
C        19.61803776890167    1.86816526433245   -0.40204733773319
H        20.58014851044893    2.17161189423145   -0.83359575453701
H        19.32056619226654    0.92921386993674   -0.87424873613449
C        19.81362339543429    1.66998848945534    1.10275319785524
H        20.40171928887126    2.49467390858353    1.50424456770529
H        20.40070774551210    0.76383941833574    1.25687626439644
N        17.50820806561310    2.56582640129420    1.56821436948517
C        14.66739498439020    1.57653646531857   -1.31905019128831
H        13.84198361704870    2.22744150445745   -1.58097910034660
C        14.66064750086890    0.91146178538595   -0.07458832066609
C        18.15488970585539    3.89518227588388    1.50326552416961
H        18.87735175101594    3.99629870727642    2.31933109745176
H        17.37392027910964    4.64685282741878    1.63100884720225
C        17.70585875379710    0.08331497399054   -3.07993835387334
H        17.21874144270837   -0.60117533672912   -3.77622785025294
H        18.58610518609126   -0.41986914505007   -2.68532434894536
H        18.01515181061026    0.95834056565663   -3.64905340088573
C        15.74321123459819    0.03757341216765    0.20097125504564
H        15.72565331741905   -0.54610494674712    1.11735406538915
C        16.47019947531608    2.58429027279198    2.60111723431598
H        16.87476141320908    2.92656197578895    3.55859749667872
H        16.06075681958114    1.58391558118620    2.73639070443705
H        15.67333880789854    3.26148495764945    2.29182884134475
C        15.68809632254033    1.36105683368885   -2.26544191631410
H        15.61688405577464    1.82374517331805   -3.24377244793747
C        16.72996520051540    0.44234790646463   -2.00149805542495
C        13.48365125020419    0.98505329357700    0.86926345285373
H        13.83903926913139    0.75796501176523    1.88163842555147
C        18.80705485590715    4.09858028169291    0.11924977141974
H        18.31201724826790    4.93113908844267   -0.38525063633854
H        19.87657864423222    4.31912816029267    0.19803711747267
C        12.47968247229466   -0.10203799116892    0.46256451336992
H        12.12081580116192    0.07096704506377   -0.54952947503934
H        11.62842443618569   -0.08573026831567    1.13711613317406
H        12.93480569968421   -1.08941527739344    0.50377857233265
C        12.81322030504877    2.35895881562723    0.88649864294490
H        13.55345259527102    3.15503675674571    0.93886530247826
H        12.16011737884964    2.43776331549403    1.75089175561263
H        12.20577949887334    2.50958104461515   -0.00209381329165
Ru       16.64131427946379    2.09085983684056   -0.32306657264113
C        16.74825508480498   -0.21533158550452   -0.75171374258586
H        17.48866213201976   -0.98389534936508   -0.56103135853870

