37
CSD_code = YIKCUR | q = 0 | S = 0 | Stoichiometry = C6H18FeN2O8P2 | MND = 4
Fe        4.78530891589024    6.63574728281819    4.20793287615757
P         5.60497246971848    5.05380265617311    2.85830299716542
P         4.02667911818117    8.23532340639701    2.89728956325699
N         3.48931168783721    5.98174207473007    4.89238343451654
O         2.50452883830389    5.54645668090866    5.37928064767599
N         6.11054848210048    7.36512402861032    4.74314074192315
O         7.07053605785287    8.06414955620797    4.91529497868868
C         4.71327096494675    3.45909037720258    2.48047959253613
H         5.39089964857497    2.81472292880052    1.89537546014811
H         4.50364780371197    2.97011195843886    3.43862258701461
O         3.47764525529177    3.63410814989662    1.85152450786299
H         3.59984345702317    4.13153791393619    1.03334417009430
C         6.27317766098838    5.46117824442728    1.14970679549533
H         6.59033017015807    4.52795242505553    0.66724305054654
H         5.49925631556542    5.93093324495620    0.53388026439916
O         7.41342844293779    6.27257092025447    1.27499067155182
H         7.14122142086049    7.18135970865444    1.48280295369023
C         7.18143972061226    4.30162034149427    3.54932690982453
H         7.78854495957399    5.11163050680646    3.97571329858035
H         6.88807025547934    3.62768240446038    4.36215239794903
O         7.89655705600177    3.54933658158021    2.61411026646874
H         8.33554940200986    4.16452613606694    2.01199810683397
C         3.42048829900192    7.73935429153366    1.19101702888100
H         2.50178127950923    8.29271526126903    0.94990212232403
H         4.19190614391373    7.98291939927087    0.45263472814260
O         3.23109642273910    6.34823701016570    1.12050614557342
H         2.54412099754188    6.07966630730856    1.74604626320426
C         2.58947182765127    9.33619483899996    3.39370575592102
H         1.71516849547064    8.69393496142439    3.54447720797102
H         2.82330941901970    9.81977918983995    4.35170596264937
O         2.24866684124324   10.25797355612929    2.39186682538914
H         2.87140365968075   10.99230950544843    2.39674421694039
C         5.27919793033789    9.55718167765212    2.43497318057162
H         4.98269207353106   10.05945729249109    1.50606135652027
H         5.34463593931893   10.29403361160307    3.24739889013893
O         6.52630531235770    8.95175040711745    2.19268358654886
H         6.97328725506177    8.80038516186988    3.04338045684437

