42
CSD_code = YIKDOO | q = 0 | S = 0 | Stoichiometry = C16H16FN5NiO2S | MND = 4
N         5.25194020636772    0.06694523942692   16.33100491397758
N         4.11824858252895   -0.20721006192973   13.85668342217232
N         7.19759617791468    1.55404393461887   16.91519693256173
N         8.21682675254125    2.29114951606183   17.34841344333125
N         9.37181930772787    2.89725920644486   19.29288064868879
H         9.39529404729134    2.70936417100354   20.28844892958930
O         5.08509851818235   -0.56127004597238   19.01592787919936
O         5.84572871061197   -0.25874991480327   21.09193232980243
C         4.19652594607029   -0.71262138517663   16.16191860604374
H         3.80572782942759   -1.20464624523971   17.04158954420132
C         3.64439199020498   -0.86955140181022   14.89708713885119
H         2.80184186795196   -1.51965999627694   14.71403518958662
C         5.16149369295615    0.59233550204921   14.00693882059907
C         5.78975291689980    0.72066457539048   15.26893510262368
C         5.56082129175729    1.32758244283992   12.76964431980097
H         6.47135774850537    0.90751537737013   12.34645238922878
H         5.72021676778980    2.38290269553196   12.96843791161117
H         4.76435634130696    1.21058885446467   12.03936815805379
C         6.95425771541417    1.50500933936061   15.62244368110640
C         7.86309566531557    2.19800033075237   14.65972776269743
H         8.01048724040291    1.60629374851384   13.76270710189252
H         8.82220130476054    2.35034293292152   15.14993839155168
H         7.46802346550284    3.17434940909931   14.38143197069988
C         8.39054026486263    2.22867475910797   18.65468070847507
C        10.33915464107332    3.76956483145275   18.81692802043643
C        10.36599257017336    4.21809503280603   17.49722876607387
H         9.60374136603593    3.87947210393386   16.81737402338346
C        11.35241671272417    5.08961660059165   17.07850725307742
H        11.38502254126873    5.44528110315272   16.06096841312123
C        12.30896537312436    5.51323498852459   17.98349674363482
C        12.29957408087428    5.08954497625869   19.30101674260125
H        13.05637954564755    5.44102517935156   19.98380880622910
C        11.31190658995528    4.21840884690391   19.71355869042860
H        11.29080866908181    3.87884876548708   20.73845895000525
C         5.08978210550258   -0.76816305373419   20.28800394588912
C         4.00818123656925   -1.75350939699194   20.72872231043844
H         4.12819579320994   -1.97372424151948   21.78467731767962
H         4.08685660113021   -2.66541743450346   20.14191643285636
H         3.03178642379132   -1.30724939856215   20.55336303018121
F        13.27328649916408    6.36402196248918   17.57308604563542
Ni        6.16637800742216    0.53585962802924   18.02183304399370
S         7.37372689095327    1.25967652258049   19.68312616798762

