114
CSD_code = YIKFUT | q = 0 | S = 0 | Stoichiometry = C52H58OSe2Zn | MND = 3
Zn        3.18213009054709   -0.17670448918462    5.62707809882738
Se        2.96341855262642    0.18532677407563    7.99416560484161
Se        3.29607630110747    0.06263832611759    3.23767558593725
O         3.57773424748308   -2.37326630426544    5.71291610790722
C         4.23485042781061    1.58660972197663    8.39323042041584
C         5.51728380861632    1.58612458136875    7.84745545496439
C         6.40862632218022    2.58642268399510    8.21797330693519
C         6.03895938482521    3.56788205911945    9.11774739004733
C         4.75533139191864    3.57676192544213    9.63398109716407
C         3.84299462567466    2.59500907062955    9.27637127717190
C         2.45656524405976    2.64433234761225    9.79491128412308
C         2.11202953003201    1.95209216265699   10.95665120905026
C         0.80979563998576    2.02580631120109   11.42283564701858
C        -0.15649614880647    2.76677548898291   10.75613635039912
C         0.20334590707512    3.44336482514481    9.60073812014689
C         1.49993139210866    3.39525450257419    9.11133734344785
C         3.14302906921287    1.12605617739880   11.66298149141988
C        -1.56496569013382    2.80896542168825   11.26956499582183
C         1.87623470109766    4.12940667405999    7.85844624272885
C         5.95198086618715    0.57884878737375    6.85121577376770
C         5.97665537747178    0.92403051248510    5.49457903352245
C         6.43505964527631   -0.00692561457567    4.56951192606691
C         6.88127719920547   -1.25992835525048    4.96512301612659
C         6.86174247926429   -1.57807650017694    6.31604589905870
C         6.40379599915879   -0.67714297926334    7.26594472573678
C         5.59349442353299    2.30316405133004    5.03964311699276
C         7.42277053539029   -2.22118396065380    3.94924148654024
C         6.42048885543225   -1.01916354441351    8.72551021356197
C         1.62271400473903    0.90103638978568    2.75171900628659
C         0.41304016661536    0.49613627809690    3.31326953115803
C        -0.76524845452876    1.09342957381820    2.88051103697809
C        -0.74752279377949    2.07127858569979    1.90429560742246
C         0.45995865613750    2.48706746785711    1.37196374997869
C         1.65171469037108    1.91368020484527    1.79039756372408
C         2.94147329483168    2.40456115991535    1.25270952803140
C         3.52413308185996    1.79195621361824    0.14416430727045
C         4.72796274308183    2.28032815832331   -0.34147415787455
C         5.36315171838028    3.35778465205057    0.25568331756234
C         4.76983830765259    3.95203731331785    1.36170852804728
C         3.56523596432812    3.49240329726531    1.86734482452966
C         2.85843423108792    0.60751712075699   -0.48683703423552
C         6.67145928695806    3.87504302999665   -0.26403511806419
C         2.93604267067620    4.13925809118290    3.06565599583945
C         0.34192809525258   -0.52069388109059    4.38896082332321
C         0.36181266060239   -1.88309827674156    4.07729099958586
C         0.23266863953382   -2.81212144394634    5.09909417655982
C         0.08376151225612   -2.41892525949905    6.42182870079094
C         0.05966098305781   -1.06269973426321    6.71471703419533
C         0.17878225324633   -0.10358130124567    5.71554827518561
C         0.48611242506524   -2.31963158459340    2.64846395012666
C        -0.10303801532687   -3.42774830396462    7.51575458176841
C         0.05137502196209    1.35278740082992    6.05965451902373
C         3.81652253329294   -3.21361168711966    4.58070680598061
C         4.34083836071888   -4.53244336413728    5.13384970057401
C         3.60856362178084   -4.61057456236865    6.47029262204660
C         3.63122061105041   -3.15266358184748    6.91076746006072
H         7.40351928781016    2.57867488682840    7.79475689744403
H         6.74645049398928    4.33108174242204    9.40735918469511
H         4.44695524551972    4.35161686007234   10.32188302027215
H         0.53809760000150    1.49016357498071   12.32208329045309
H        -0.54100089454806    4.01904281684628    9.06729806427332
H         2.74252493356584    0.70292085107691   12.58059488704549
H         3.45974200523197    0.31090824255248   11.00919823316105
H         4.02300821722439    1.72259004867605   11.89946862815276
H        -2.12426616550686    3.61934938995476   10.80828126182527
H        -2.07344455515226    1.87101474020800   11.04421188333734
H        -1.57711064113024    2.94301345540403   12.34962631774914
H         1.00223460056205    4.58042762586217    7.39474279189647
H         2.60134761822571    4.91327769911975    8.07696262647410
H         2.33762764833208    3.44723740810706    7.14439110538946
H         6.45940340931104    0.26270766605789    3.52143117283930
H         7.22520479485712   -2.54519339871046    6.63912552333819
H         4.77455734953961    2.70887202989437    5.63371544431539
H         6.44372374530615    2.97709122530483    5.15301519412105
H         5.30618181235882    2.29415338892172    3.98978726197431
H         7.37034836650548   -3.24760492555394    4.30613496500161
H         6.87598139446126   -2.14060899203291    3.01168305979258
H         8.46906940290091   -1.99006612154701    3.74499576229852
H         6.84409986781806   -2.00745867380020    8.89050767236296
H         7.00937637233886   -0.28766638464733    9.27822562399327
H         5.40941776301126   -0.99799091506520    9.13453633606950
H        -1.70106082747383    0.77254567892748    3.31668776762880
H        -1.67213670076246    2.51682357411909    1.56744121197542
H         0.48918269632209    3.26688078995741    0.62379029874758
H         5.18132884045963    1.80473827104887   -1.20033397401278
H         5.26083427558934    4.78919790044400    1.83932634541106
H         1.82919893810390    0.83918536095518   -0.75732148104224
H         3.39581974873023    0.28464141638194   -1.37477884878642
H         2.83663896457771   -0.21631358442061    0.22945745624349
H         6.96132308301971    3.35668608833953   -1.17456706109043
H         6.60357255248510    4.94135429129857   -0.47577336433877
H         7.45580681522294    3.73302175063745    0.47921882682812
H         3.58579365634960    4.90695025490157    3.47888997207203
H         1.98162809077576    4.59309925116568    2.79916090023939
H         2.73983646826501    3.39508131125470    3.83758698607120
H         0.23362928227325   -3.86684391076083    4.85546799156807
H        -0.07246183155769   -0.73951925825648    7.73932953238844
H         0.43297118288836   -3.40294548761914    2.56477391666228
H        -0.31112053267716   -1.88126421994960    2.04879168390469
H         1.43344316365763   -1.98119205995487    2.22650063219803
H         0.38536287603489   -3.09916259614534    8.43127229490015
H        -1.16601029151098   -3.54561536031191    7.73024901069415
H         0.29106836694062   -4.40075060337907    7.23021186783751
H         0.68204119881672    1.97269931137193    5.42242259645277
H        -0.97988684490688    1.67634721440226    5.91230181304872
H         0.31396055389865    1.52422585490332    7.10199007894308
H         4.52143729380568   -2.70725482322146    3.91857131608405
H         2.86902777894211   -3.35757021761659    4.04961940274583
H         5.41706738513341   -4.47461169379096    5.29748596909268
H         4.12563467797971   -5.36888002712167    4.47343067348607
H         4.09324964550986   -5.26441941295506    7.19116830498270
H         2.58236645605683   -4.94549919944801    6.31821836977687
H         2.78437335903286   -2.87430176351053    7.54087179527344
H         4.56149355376145   -2.91438095853989    7.43830295007440

