101
CSD_code = YIKFON | q = 0 | S = 0 | Stoichiometry = C48H50Se2Zn | MND = 2
Zn        0.31189686075345    2.77970762765217    5.17198531376784
Se        1.60735771482235    3.24814826482359    3.21676224239629
C         2.39341093549008    1.55673581362150    2.73570399240866
C         3.51877949865948    1.60851317492856    1.90689262080752
C         4.12063305282319    0.42951696590376    1.49676687477550
C         3.61990776894632   -0.79444653943243    1.90518118188591
C         2.51981461187549   -0.83756020335904    2.73815731892856
C         1.89184761542856    0.33026064575782    3.16296711948700
C         0.72194902577241    0.16899692757635    4.06006934023994
C         0.92973519194070   -0.21052701604398    5.39501683663738
C        -0.16086933540869   -0.57778011087229    6.17041285449435
C        -1.45429844352765   -0.56633745441850    5.65862152022541
C        -1.64570263144061   -0.15284382735366    4.34801433942204
C        -0.57804670524560    0.20541622691496    3.53537637527323
C         2.31973834991553   -0.27668597483984    5.96141122632510
C        -2.60284917976854   -0.96524613040271    6.52774089964295
C        -0.79370475808468    0.55411978704127    2.09257270312744
C         4.08137602660111    2.91082530699806    1.47798118891610
C         3.63439412802687    3.51257454681445    0.30134922343554
C         4.19897460794385    4.71446919080636   -0.09954636588372
C         5.19785645599250    5.32546428888818    0.64184759003798
C         5.62823110003691    4.71294856696158    1.81171904464386
C         5.08300815541538    3.51479023254505    2.24185069742777
C         2.54313848202213    2.86817442679975   -0.49788343673012
C         5.80358967403753    6.62703591029316    0.20943958312441
C         5.52815586442724    2.88391230826173    3.52643741006204
H         4.98824834901815    0.48048474595300    0.85401100780647
H         4.08876865427433   -1.71102207816984    1.57885518344108
H         2.12071054236197   -1.78706495472736    3.06710538688987
H        -0.00304363058718   -0.89399357499771    7.19274098629744
H        -2.64662560612455   -0.13396232198551    3.93882412540829
H         2.29021905166016   -0.21742455312127    7.04719890123487
H         2.79519641668768   -1.21769698932020    5.68267451857809
H         2.94215024644306    0.53156161534952    5.57756795033977
H        -2.39799024196239   -1.91157008095032    7.02485933180850
H        -2.75143634559355   -0.20796720736134    7.30015857750353
H        -3.51977037122931   -1.05555024047508    5.95139627598750
H        -1.85076131299282    0.52065830138877    1.84060995422104
H        -0.41631919329394    1.55335051601757    1.87174910538886
H        -0.25532399497398   -0.14527525610989    1.45282104991323
H         3.84919124288950    5.18319424718995   -1.00897688221022
H         6.40175300765621    5.18582975519387    2.40116349317421
H         2.81150221263388    1.84773365572817   -0.76829257123212
H         1.63205310423839    2.82387966330519    0.10087052216962
H         2.33815836793808    3.43296023544622   -1.40370764158515
H         5.37003009195734    6.96659889140547   -0.72773093999155
H         5.63622696938307    7.39178040096190    0.96723671369812
H         6.87961707362809    6.52042369878732    0.07671587004221
H         4.70004499039183    2.87831512921818    4.23650715312197
H         5.83480918094800    1.85096399272822    3.36741911710530
H         6.35605798081037    3.43596306357315    3.96427737025205
Se       -0.98362517153551    2.31145781733480    7.12699984620997
C        -1.76958791163191    4.00270195345951    7.60869287014210
C        -2.89483180223806    3.95088965645595    8.43768720424642
C        -1.26806021254642    5.22919257823571    7.18144669919807
C        -3.49652804971713    5.12986834133872    8.84808270191570
C        -3.45749326221925    2.64856541470714    8.86648012179528
C        -1.89586663579963    6.39699691252878    7.60653634426373
C        -0.09840524216722    5.39048244828322    6.28401880745589
C        -2.99578521155560    6.35384916761233    8.43974308651525
H        -4.36401018226969    5.07887555195435    9.49101591520976
C        -3.01063862499124    2.04672988564690   10.04311503468768
C        -4.45903608665882    2.04464631013861    8.10245438583752
H        -1.49676584371073    7.34651906977955    7.27763473423351
C        -0.30656912750397    5.77005405301460    4.94913342072285
C         1.20174735381769    5.35404453755310    6.80833722842693
H        -3.46449926958579    7.27040970110161    8.76631598968568
C        -3.57519501495285    0.84475964415106   10.44381494283402
C        -1.91949124934001    2.69108335160263   10.84253719308217
C        -5.00423348021039    0.84640566568818    8.53238948837144
C        -4.90412682475469    2.67565740132768    6.81791099157437
C         0.78381788737119    6.13734084746899    4.17343809573519
C        -1.69674780704887    5.83630200550639    4.38318213428762
C         2.26916601966704    5.71238832202264    5.99542076082643
C         1.41780079682307    5.00520677007428    8.25104872677667
C        -4.57393493067087    0.23377015902583    9.70222511705265
H        -3.22552484440885    0.37598675008668   11.35326479035961
H        -2.18793188502150    3.71145631258665   11.11305493293868
H        -1.00834531263676    2.73551843284425   10.24392049287660
H        -1.71458692969074    2.12621074097537   11.74830224702863
H        -5.77767723970674    0.37356139508214    7.94281702947613
H        -4.07605868483559    2.68109252790084    6.10775579756218
H        -5.21055462336016    3.70868762632879    6.97699070203069
H        -5.73219911514987    2.12378402867837    6.38012255990497
C         2.07738553098479    6.12593691588571    4.68488131443872
H         0.62571275064220    6.45353138975093    3.15114749527095
H        -1.66758795357906    5.77719605496539    3.29737754122797
H        -2.17208794759042    6.77728700661052    4.66220970299469
H        -2.31905586227428    5.02802157960480    4.76712195534330
H         3.27019762014926    5.69357524999991    6.40434408155686
H         2.47489161429142    5.03900893839165    8.50281902816710
H         1.04082759524239    4.00579288080890    8.47175970449761
H         0.87927303225164    5.70428382733413    8.89102074360812
C        -5.17962853408878   -1.06789279195907   10.13440907819658
C         3.22570370799493    6.52492513901056    3.81549235285142
H        -4.74609015218572   -1.40758505539155   11.07154270433014
H        -5.01218424737907   -1.83249942614390    9.37649244207030
H        -6.25566953139052   -0.96136589595657   10.26709885362606
H         3.02034721040909    7.47087809043698    3.31784067505855
H         3.37463766384716    5.76726553649660    3.04348223104403
H         4.14261516758939    6.61599156892776    4.39176744799599

