103
CSD_code = YIKJUY | q = 0 | S = 0 | Stoichiometry = C41H57ClOP2Ru | MND = 5
Ru        6.88713218502040    2.67427242568609   15.74994826008142
P         4.59018079081863    2.79137165267088   15.59564747123329
C         4.34284175835207    3.07556703762252   13.82773821793063
C         5.56076681086631    3.15605551518436   13.10295780331171
O         6.72309344121393    2.99469195553013   13.64718850673860
C         3.12391139098526    3.24547483386732   13.17714968853229
H         2.20174986316250    3.19099867807958   13.73747079819745
C         3.07614442428747    3.49769371658557   11.82188975400698
H         2.12543800277473    3.62917133102488   11.32734145287013
C         4.26178818847629    3.58734749173525   11.09969600277041
H         4.22713221394698    3.78727829420416   10.03784044711562
C         5.47624344625453    3.42456453517355   11.71826041610397
H         6.39843901976490    3.49178045636333   11.15817886837217
C         3.42404132025870    1.42519344401160   16.17014302952234
C         3.61573620432813    0.27943119280150   15.17737474111544
H         3.06225583684774   -0.60087650638692   15.50057462646195
H         4.67345269290191    0.01942037479069   15.10882205040508
H         3.26889148437527    0.56152207917112   14.18413871780245
C         1.96179517633161    1.86085304641243   16.23153947683252
H         1.37794616822623    1.08082010135925   16.71940738337177
H         1.54481325200315    2.01298629261759   15.23999578456800
H         1.84804799740129    2.77966200706136   16.80542451185226
C         3.87774268241873    0.98995330342804   17.56454204788373
H         3.57880721133206    1.71864900717766   18.31487663611802
H         4.96166248212196    0.87924587990625   17.60326770284624
H         3.42403006813450    0.03382261746197   17.82206784221953
C         3.96525560519079    4.30124362837046   16.41771772662090
C         3.33565244497003    5.32681400086744   15.71808179719940
H         3.18468896687462    5.24018223704510   14.65141040078522
C         2.91080814351458    6.46291290588358   16.38445559946996
H         2.42011008947440    7.25285837084491   15.83391501138536
C         3.11537881217358    6.59121369014781   17.74795311464858
H         2.78167850966948    7.47968988830281   18.26368763370736
C         3.76577520448113    5.58511092193645   18.44496607369624
H         3.94831599084930    5.69017351387674   19.50457693120466
C         4.19646003551102    4.44841201561202   17.78592759837959
H         4.74603205995730    3.68737933715052   18.32316710840886
Cl        7.11101045421215    2.69541715283053   18.11649196567209
C         7.14673979728523    0.77939328032200   15.79436331348879
H         7.22042265104722    0.34498989956766   16.80542059869468
C         7.26553532679631   -0.22789221071977   14.79016166763656
C         7.28668890737601    0.05701336819569   13.41298922357635
H         7.20852012580724    1.08591059936748   13.10097343128690
C         7.41123622310813   -0.95208028547133   12.48281534767037
H         7.42654166766239   -0.71159096779476   11.42967810195337
C         7.51443402862541   -2.27497516823606   12.88931444734691
H         7.60818828909195   -3.06347878286332   12.15709801629372
C         7.49771383338387   -2.58114692178371   14.24229741446596
H         7.57932311872294   -3.60964172455928   14.56355436550901
C         7.37936974316714   -1.57743588833915   15.17941774157234
H         7.36734555799756   -1.82333140464112   16.23232752061094
P         9.05918699623103    3.49981433341360   15.66776073287488
C         8.72095621220127    5.31454909069388   15.96993439620988
H         9.44895032625607    5.93442028271516   15.43116164573162
C         7.31937424689797    5.54200586107199   15.38652595110626
H         7.31136542735433    5.29927329950166   14.31752690316173
H         6.61431854540833    4.85984242525557   15.91422718103157
C         6.83554134994807    6.97205972978534   15.58823417481028
H         7.48649652282086    7.65206986876260   15.03090994942443
H         5.82216279429295    7.07695037301361   15.19311007855357
C         6.86228142314589    7.33759623779404   17.06785639518258
H         6.53516495985486    8.37057440104735   17.20330991366201
H         6.16958895782341    6.69240218930127   17.61299550998450
C         8.26996047778106    7.15292672511774   17.62293958053663
H         8.28874060567432    7.41106370469385   18.68346323028597
H         8.95734144480070    7.82624787400957   17.10233993609529
C         8.73687015793976    5.70891162179685   17.44800288987621
H         8.07569723776095    5.04619734254879   18.01368982514065
H         9.74607833022668    5.61441809992480   17.85351480244096
C         9.77212511157988    3.45585289741787   13.94798091049146
H         8.87352483972827    3.62146941753099   13.33539433965029
C        10.26392300964532    2.04074277353415   13.64271007047941
H        11.20572063993041    1.85374321326246   14.16365772896730
H         9.52370966573718    1.31491661399177   13.99156710306112
C        10.49414449003752    1.88658698987072   12.14297691363609
H        10.84211347956506    0.87564400788121   11.92073166769428
H         9.55003976858616    2.03866595451893   11.61678383165734
C        11.52004168921669    2.91152340548663   11.66657819309300
H        12.48114700700983    2.71151126675462   12.14713736384425
H        11.66403090675958    2.82483126125489   10.58764763541590
C        11.06696986209110    4.32699980755671   12.01408363318111
H        10.14181521651353    4.55060189796227   11.47780282195085
H        11.82232969567083    5.04785576250847   11.69222739866924
C        10.82434025159260    4.47496411989942   13.51742130807609
H        11.76284021784749    4.31074020890237   14.04789482994037
H        10.49624785966599    5.49612648402964   13.72034709364632
C        10.32546381706992    3.02236141636104   16.93866547576784
H         9.87740437329692    3.38397114071547   17.87414405397596
C        10.44574214997240    1.50548658648695   17.08348286221175
H         9.44603095963053    1.07674025255419   17.19054907983761
H        10.90982694652041    1.06462157992638   16.20008393098020
C        11.28953843262846    1.18383510064602   18.31436761608508
H        10.78177799939912    1.56017243508017   19.20458226472464
H        11.39335008905209    0.10212902869707   18.41949446511541
C        12.66903370709560    1.82833534331964   18.20152055957992
H        13.25332221890111    1.61575042496911   19.09898945161806
H        13.20039081417838    1.39819490505177   17.34867284611299
C        12.54740702841025    3.33782748182444   18.00977171540684
H        13.54020630114183    3.78153301284721   17.90403956268635
H        12.07532885110718    3.77812726573288   18.89098535163550
C        11.70564235647108    3.64987034269935   16.77334601926756
H        11.62812921416720    4.73086634760469   16.63358523152509
H        12.20145531380755    3.22698557320163   15.89772918438297

