56
CSD_code = YIKJAE | q = 0 | S = 0 | Stoichiometry = C20H26CoN5O4 | MND = 6
Co        0.18600554141729    2.82823337955735   11.69182467509699
N         1.61112025640479    1.53070078464390   12.51279304170874
N         1.52183414735019    3.75164050459200   10.74869682999542
N         0.57127157617774    4.08807292510803   13.02825475672277
N        -1.19795362142140    1.93646030357311   12.59331308928318
N        -0.16344749884624    1.53848637326485   10.36112414252656
O         1.96420282419627    3.48463584515560    9.49933222086905
H         1.41060112130045    2.65329718055694    9.20654277468080
O         0.00899294917138    4.10012788097250   14.17759265191316
O        -1.69659409234094    2.24216583755389   13.81591985090607
H        -1.12719629404752    3.04577061147285   14.12750688848633
O         0.50551411821525    1.42826690187968    9.27424100748338
C         1.64303418828888    1.28703768477439   13.82025318548810
H         0.92163444512993    1.80382349682840   14.43832422275882
C         2.55046547037568    0.42604757141027   14.41028365339937
H         2.50190314562043    0.28753072941070   15.47679684161794
C         3.49423197283993   -0.23530449088898   13.63123839704147
C         3.45131400703460    0.03551266027056   12.26414911617035
H         4.14520153796588   -0.42811514318317   11.58177841915963
C         2.51108689403487    0.90708503799742   11.75370053421631
H         2.47993941898151    1.09826983518524   10.68988380321974
C         4.52343306673249   -1.19520689318597   14.19193711939432
C         4.33984538642239   -2.56402904609168   13.52103435159434
H         5.05961845765551   -3.27236986262500   13.92409901404397
H         4.48736876897677   -2.50486388086278   12.44637958053800
H         3.33862396390503   -2.94621946031915   13.70898527405653
C         4.39089020411158   -1.37420346249953   15.70607346078661
H         5.14645796585492   -2.07479857800697   16.05403934694768
H         3.41517173661717   -1.77606148861256   15.96937316902809
H         4.54289621755187   -0.43230781917842   16.22800170621008
C         5.92391429464463   -0.64603744256840   13.88432159243015
H         6.68006442321495   -1.31318505613937   14.29094446786477
H         6.05270792269565    0.33579344906037   14.33525198471083
H         6.08966229936089   -0.55572196268313   12.81435515189618
C         2.05981228456847    4.71665523500201   11.41137194426795
H         2.85436515344064    5.32403177900970   10.99679556473504
C         1.52829769193607    4.91076636706743   12.71438891217485
H         1.88355836962716    5.67007232195950   13.39765170028937
C        -1.08976908256641    0.68743477601261   10.68727605420052
H        -1.37579063768623   -0.12892953982096   10.03867883444831
C        -1.68657701953417    0.93283892346295   11.95166604430103
H        -2.48611385064677    0.32691967993822   12.35832693275922
C        -1.20192954988823    4.14365437328590   11.00884864762329
H        -1.83585044499235    4.40054819259176   11.85972009695695
H        -0.66280936267094    5.03618771050934   10.68641524048177
C        -2.01168031082708    3.60587634478004    9.90585218548762
C        -1.56539575793489    3.68369119345058    8.58365806420430
H        -0.61674373311483    4.15554455492905    8.37261639547334
C        -2.31394666737923    3.15664377211025    7.55081584338532
H        -1.94818354052391    3.21963239087659    6.53628264960931
C        -3.52987919943089    2.54498691666885    7.81106866722387
H        -4.11335206533282    2.12910494362008    7.00264390267748
C        -3.99620513794463    2.47602843643107    9.11377547205860
H        -4.94964299593080    2.01117386246703    9.32192759080925
C        -3.24699759435072    3.00003079598643   10.14889807701944
H        -3.62108336448486    2.94867256322761   11.16177485767848

