87
CSD_code = YIKKEJ | q = 0 | S = 0 | Stoichiometry = C36H46ClO2PRu | MND = 5
Ru       15.98852326067063   10.89242772517835    4.04796529679771
Cl       17.80438780346936   10.84717938851705    5.47009635892895
P        15.28023800844879   13.01021429030783    4.39638058111075
C        13.65034573279185   12.97312186714139    3.60334529823652
C        13.29282144582611   11.66274561124597    3.19565070702093
O        14.08748843139881   10.64297223380627    3.34448838678790
C        12.02079056033504   11.47272924457173    2.62266777412841
H        11.73879345426325   10.47415809166111    2.32141921035422
C        11.16384564397231   12.53367623259519    2.44387052843230
H        10.19545730952120   12.36551134348976    1.99469175839707
C        11.52982035423434   13.81551597676265    2.83403687593922
H        10.85077104973414   14.64212417453424    2.68908088411076
C        12.76442344572255   14.02958433782043    3.41666772322385
H        13.02995299860045   15.02756346394776    3.73162734346330
C        14.97501041385310   13.52456823124795    6.18446563786665
C        14.27880758464065   12.31642456324423    6.81328455941090
H        13.98516549348526   12.53160156655676    7.83991437697366
H        14.96572640001189   11.46588454229222    6.82575205318894
H        13.38424279404234   12.04584466047535    6.24714058174959
C        14.09930929150243   14.76994906447104    6.28150991093597
H        13.08432086087238   14.56200356828040    5.95185024712885
H        14.51396267592065   15.57955217351470    5.68195934963363
H        14.05760827356305   15.10303849119667    7.31811290331916
C        16.31096003776017   13.77293536875081    6.87956975326980
H        16.78733497930348   14.67297282342546    6.49584691866482
H        16.98305540655524   12.92770519400800    6.73660973158607
H        16.14805356732796   13.90118536974197    7.94916733116358
C        16.27935183448650   14.34570004531999    3.67641752885839
C        17.64015123455741   14.32980158197365    3.98608459888442
H        18.03076474903390   13.53443985113020    4.60587276520386
C        18.48343786190884   15.29776621358399    3.47622209090118
H        19.53464275928918   15.28053922613823    3.72374026897631
C        17.98285886434140   16.28230892194013    2.63795323947586
H        18.64077044492039   17.04064132537641    2.23941269804179
C        16.64224080765179   16.27747824850128    2.29336818550695
H        16.25506807594587   17.02721470950301    1.61845171537028
C        15.79144850144275   15.31066559428394    2.80313650925673
H        14.75582902428427   15.29754371794126    2.50189128003081
C        16.93542742790318   11.35169034404590    2.47009605939762
H        17.04129447498592   12.33678445703352    2.00803155132230
C        17.68357524005263   10.30449373966941    1.87912781440585
C        17.50292818768682    8.96685530479065    2.33418381441349
O        16.58321766850182    8.82820162203191    3.32807186720816
C        18.61973455021604   10.53846104029122    0.85586883655695
H        18.75326221376078   11.55167291642247    0.50584089433653
C        19.36070335942188    9.50890032904699    0.32251192757312
H        20.07958480994833    9.70567704302298   -0.45819074847400
C        19.18851046704413    8.21547278172336    0.79600426798956
H        19.77833215863364    7.40779698544131    0.38989533118841
C        18.26513923164516    7.94302392081880    1.79226360138428
H        18.16530653273059    6.92661510809210    2.14096029887777
C        15.87868404102909    7.60081777802424    3.53598451138014
H        16.48844674433141    6.76755498232445    3.16594422092770
C        14.55761828298336    7.62501951153249    2.73628003916457
H        13.95952710905505    8.47254028289147    3.08402524054023
C        13.76351283108271    6.33033742979841    2.91850367050598
H        14.36962769050772    5.48416635488429    2.58225671783933
H        13.52144894056818    6.17342810372378    3.97070790102549
C        12.46372183841438    6.37302738735513    2.11897327661033
H        11.91669762183176    5.43817840828551    2.26031343900829
H        11.83856203317991    7.18625558628907    2.49480163428014
C        12.74553593500468    6.59729470032982    0.63833365537775
H        11.80700819529834    6.64591618250698    0.08237566046416
H        13.32379476565645    5.75699385983315    0.24632917975351
C        13.53307910177057    7.88827026008735    0.45062720286470
H        13.75660543878131    8.04254677840196   -0.60707850717386
H        12.93495691863526    8.73574515376645    0.79151110102994
C        14.83432568503837    7.84967231415289    1.24563581720374
H        15.35211270491335    8.80110143718605    1.10450138226466
H        15.47503152922284    7.04978199031206    0.86140672069123
C        15.71534728207424    7.40902954244041    5.05867610305660
H        15.21813769770292    6.44595315125311    5.21983757892864
C        17.09748649698555    7.34131016434735    5.71955736950654
H        17.63988038491378    8.27173845307470    5.53607651935433
H        17.67409911305255    6.52366130645447    5.27770647677242
C        16.97741323372920    7.13567997953358    7.22567718232192
H        16.49092231593703    6.17764587268681    7.43077735942133
H        17.97430292210948    7.10868393655634    7.66893153335232
C        16.16280253981953    8.26658416495307    7.84333854197529
H        16.67336054698355    9.21487249830457    7.65927511229431
H        16.08338812869384    8.12867242870988    8.92351404199869
C        14.77282934246352    8.30269007563233    7.21768081858429
H        14.17886158169220    9.10541314706646    7.66118998189442
H        14.25850724630092    7.35843426117351    7.42025065000459
C        14.86629250015151    8.50419863961150    5.70879082720595
H        13.86181371833796    8.51061987035753    5.27903814531576
H        15.32875978355185    9.49712937917930    5.51606041574962

