105
CSD_code = YIKKAF | q = 0 | S = 0 | Stoichiometry = C39H61ClOP2Ru | MND = 5
Ru        0.53161904786978    2.78035704583798    3.35618821686810
P        -0.50388767664665    2.54451313308314    5.43006991010636
C         0.82813375497213    3.07728404870765    6.53291311745229
C         2.04505723685840    3.36658639954380    5.86156925216306
O         2.16380546982329    3.37042403030275    4.57183638875698
C         0.75368571986080    3.16879379417287    7.91926417171382
H        -0.18051849225505    2.96748711447382    8.42287700288838
C         1.86206861567893    3.50881882879826    8.66706213111260
H         1.79247201323637    3.57457263479119    9.74247003211540
C         3.07132498651652    3.75498227457420    8.02550735345870
H         3.94475380933203    4.00950318704080    8.60939210214529
C         3.16741928028524    3.68674504705154    6.65762681546359
H         4.10235308732480    3.88817412138997    6.15397502042938
C        -2.10256661433965    3.40543864531115    5.95786087530090
C        -1.71725850000930    4.84916880070709    6.28944789203989
H        -1.09606883026735    5.26660478535301    5.49931530615371
H        -1.16233911919448    4.90553888339094    7.22334464449416
H        -2.61229530730049    5.46285413357173    6.38286433229792
C        -2.84241439768673    2.79385680673483    7.14517914414577
H        -3.70633604239760    3.41810257907739    7.37475916336670
H        -2.21948478747661    2.75395470861495    8.03456022479428
H        -3.20783214676549    1.79529369370871    6.92298834862426
C        -3.01331520869864    3.39378065475152    4.72823488580018
H        -3.90893320224668    3.98454941073626    4.91601654515529
H        -3.31587757353465    2.38222293324629    4.46852163456232
H        -2.48975211102753    3.81661053758348    3.87055338409537
C        -0.58824498824758    0.67597040556733    5.74222036716610
C        -0.55117602486032    0.24363928347392    7.20588943894376
H        -1.45545249929883    0.52635569509318    7.73575537694657
H         0.30638440462108    0.67375569420482    7.71995958235846
H        -0.46293238556003   -0.84223992138073    7.25152675013484
C         0.69697688625113    0.19684911042173    5.05486570131420
H         0.74638322112533   -0.89274260379131    5.03680396279405
H         1.57749507621241    0.57080606179976    5.58401163791504
H         0.70880892949212    0.55241453774202    4.00889988228841
C        -1.78809822960487    0.05974496008643    5.02452993484464
H        -1.68624209098241   -1.02576708835860    5.00690012940954
H        -1.84454598404404    0.41191715833552    3.99404280939529
H        -2.72244735292968    0.29580460128565    5.52718143114187
Cl       -1.05385049035759    1.64420772831159    2.00308915504172
C        -0.21343278606209    4.47373467762451    2.86961644945676
H        -0.96117960159516    4.42937475690491    2.06264452255069
C        -0.05586859045655    5.80262134617041    3.36477967554613
C         1.01170063082493    6.18510294665901    4.19775097573508
H         1.74697826310998    5.44281215744883    4.45972089791333
C         1.13143985514064    7.48261543498832    4.64505691468793
H         1.96048603656390    7.75583469289184    5.28163170630003
C         0.19121189853777    8.43885953065726    4.28750598933131
H         0.28299306235506    9.45276101799083    4.64783384157862
C        -0.86459491010348    8.08817778356860    3.45869698216490
H        -1.59415635143740    8.83163824296265    3.17141680266650
C        -0.98375663688517    6.79614008671632    2.99387870487534
H        -1.80753195345895    6.53020132365801    2.34609059172537
P         2.06372312238155    2.64952905671060    1.56009167524018
C         3.15920936298788    1.14251373071232    1.70493771488738
H         3.95231416516959    1.21962809562117    0.95057852891252
C         3.79727835971056    1.12283076882784    3.09581645663342
H         4.39244378542418    2.02442149399662    3.25217423443575
H         3.01071757362865    1.12543902665687    3.85493779874926
C         4.67374563087386   -0.11038374233862    3.28752838356472
H         5.49936717484779   -0.08706862160233    2.57079362367109
H         5.10361034727135   -0.10233737988052    4.29157433562810
C         3.85737047293519   -1.38006064667673    3.07550498099278
H         4.49058714547106   -2.26027938951714    3.20590094954374
H         3.06002702094837   -1.42808329724222    3.82044367652650
C         3.25061215684222   -1.37841966912356    1.67724419248631
H         2.65348181716613   -2.28020395012438    1.52605791137688
H         4.05601599035056   -1.38479527011517    0.93761590107205
C         2.37468648010795   -0.14771920275949    1.45297134203438
H         1.50292358045571   -0.18991535584045    2.11260025539145
H         2.00614373909420   -0.17034876475749    0.42588788031736
C         3.28970942695390    4.05733117949037    1.66373118960165
H         3.40048910985272    4.16566995490304    2.75248361017054
C         2.67243517842337    5.35358060654952    1.14000650738499
H         2.63540294907416    5.33135049858446    0.04884750880285
H         1.65309639092208    5.45435503043592    1.52098488620169
C         3.51928934203389    6.54613948367067    1.57281105508919
H         3.07013601231112    7.47321383731425    1.21003025070387
H         3.54564068518430    6.59402655014509    2.66292437774738
C         4.93688727823898    6.40085401272369    1.02655163316287
H         5.55694076936109    7.23341724508607    1.36500602094728
H         4.90871250870781    6.42991432041400   -0.06567355284257
C         5.55120149862994    5.08021018220982    1.48064841833294
H         5.64789232712415    5.08415650010726    2.56877171874003
H         6.55221841598516    4.97156189196668    1.05634815076373
C         4.68417174980354    3.89207916025851    1.05893534762704
H         5.16487259699993    2.97426118955601    1.39801260484931
H         4.62855164042673    3.86040551469747   -0.02998712943909
C         1.42684419781787    2.47983658586643   -0.18819323017139
H         0.92467899554905    1.50285913288365   -0.16172884687369
C         0.33887171682763    3.49132432345234   -0.55017163203212
H        -0.42896418437618    3.48020969113797    0.22272792413653
H         0.74678941771245    4.49968978177535   -0.62009781250564
C        -0.29460098993903    3.10862252032632   -1.88627983916742
H        -0.77630606470025    2.13384350558183   -1.78702044491838
H        -1.06564696930997    3.83626891232285   -2.14725431029094
C         0.75841522679133    3.04906717644322   -2.98804366867606
H         1.19199021319113    4.04227122214719   -3.13060705277751
H         0.29706158536891    2.74846360947657   -3.93093632598359
C         1.86179801930436    2.06528261480086   -2.61297501932903
H         2.62733502262249    2.04540485931645   -3.39253205430960
H         1.43930920861167    1.06091994811331   -2.53320413521465
C         2.49574299769889    2.45693402161896   -1.27894807892925
H         2.93756311898148    3.44967452809388   -1.38123717226372
H         3.29235228190045    1.75104567236970   -1.03748884977270

