106
CSD_code = YIKLEM | q = 0 | S = 0 | Stoichiometry = C51H46Cl2FeN4O2 | MND = 5
Fe       13.72868004204762    4.54976245470826    5.71066744415717
Cl       12.96109397139562    6.40803001538869    6.38716031378445
Cl       14.27787419731547    3.68906503813191    7.53553240239904
O        20.64550438775372    5.17063501649274    8.77280653298526
N        13.37405942417305    5.02126955136253    4.04310112242017
N        20.22857018574200    4.30486952074578    8.03051373587017
C        18.47695820176936    3.56598713604414    6.50487299581354
H        19.00184542424682    2.62811734390955    6.40461783429783
N        15.50687834753556    5.27077952191189    5.21722256615454
C        16.65085323420075    2.75326704773747    4.94601729377546
H        15.56357284976170    2.84262281388718    5.12836790662004
C        16.63505887748057    8.29748353906143    6.10697757487855
N        11.97408549865138    3.71343116019719    5.55287165335825
C        14.28176081771355    5.74114589469667    3.33599868967099
C        16.50864253119500    7.71725202996455    8.57125430572614
C        18.98570804972797    4.54259163407425    7.35377227088333
O        20.80077645511574    3.25547711511211    7.81124009192148
C        16.32421737526701    7.24613226351426    7.14355263471281
H        15.26589206257947    6.98100981579705    7.03343436855982
C        13.97299846921941    6.23398205054148    2.07188908859231
H        14.70156766499970    6.81174480911494    1.52794559665834
C        17.30314066292805    3.80350209390410    5.81967301034391
C        16.74142897020978    6.42045745920201    3.39763302066363
H        16.59105193253053    7.48956719742521    3.25227187318737
H        16.91155134782635    5.96135207466058    2.42510987666285
H        17.62017012187380    6.27504597218990    4.01975481129924
C        17.94575575503290    8.60984129718664    5.76399489555424
H        18.76428054507396    8.09426244134412    6.24590551405858
C        17.04512519677763    1.35517707185965    5.37463127172991
C        17.12474989127360    5.99022627761760    6.89649087006692
C        15.53141564228328    5.82744240308659    4.03788931958040
C        18.15735048417713    3.33844391434839    3.00969700320887
H        18.98983796396528    3.36593759572373    3.69740218184146
C        11.46286640674426    2.78087973083719    6.47847062987467
C        16.88590905045492    3.03739667098249    3.48486170999800
C        10.20442838854851    4.60213524159410    7.71487665524201
H        10.78959152691230    5.26275547365962    7.07652829162105
H        10.38825374994012    4.89445741071575    8.75096286181398
C        11.36520807661011    3.97409842348658    4.43099077775938
C        17.16669169059529   10.24630136244622    4.19129594632066
H        17.37371869837107   11.00393661664716    3.44956773483367
C        12.71835979093157    5.98150177857226    1.53794997697575
H        12.45934795391228    6.36071429338342    0.56205554821172
C        16.66666305509220    5.04922978267174    5.96489630253740
C        12.14238260292552    4.77879988508522    3.52687199570394
C        11.87671786245950    1.44512876880396    6.33823408353595
C        15.59348128772223    8.97025770882915    5.48048261892193
H        14.57346770579535    8.72670320818743    5.73866644749704
C        15.85859937796734    9.93900589964354    4.52778829219660
H        15.04078141255698   10.45647925986670    4.04756750297750
C        10.64445967677740    3.17706126389392    7.53655743810210
C        11.79122228146068    5.24787571615098    2.26569470519073
H        10.80743058320784    5.05362507018696    1.87077808192596
C        17.75542267944703    0.48534481308877    4.56161788666227
H        18.05800242444090    0.79084179497805    3.57062923337616
C        18.30012743767480    5.72901862364645    7.57887577038657
H        18.69015215067389    6.43556803973866    8.29596143381846
C        15.82458811779958    3.00360789187725    2.58952940104781
H        14.83100589981689    2.76574044843337    2.94834698382168
C         8.71676616438731    4.77899417759159    7.40762705027440
H         8.50110000510342    4.52030166148367    6.37351271957495
H         8.42560721471636    5.81366129023185    7.56994575133264
H         8.11112254114297    4.14404442304226    8.05067864400971
C        16.02432584183020    3.27212909479806    1.24705459721645
H        15.18797895322590    3.24764931328455    0.56373949922541
C        10.02443397069707    3.43662514444590    4.04797919400280
H        10.08947640901466    2.89868765413836    3.10300734270045
H         9.32317182686296    4.26021105036748    3.91790294149332
H         9.64897147411188    2.76591560929432    4.81697488759822
C        10.60531266842230    0.89191000543368    8.30447281431161
H        10.27229147219978    0.15393520286942    9.01868905773268
C        18.20969423128017    9.57968518763970    4.81278832448866
H        19.23210521087369    9.81761065732519    4.55744082205175
C        16.65666351450135    0.93624927772991    6.64405983844077
H        16.09398878961940    1.61000163660789    7.27438841825611
C        16.98452122414350   -0.32875338973502    7.09307541238753
H        16.68142722735391   -0.64166088988434    8.08115449188246
C        13.51971713896474   -0.24034500418202    5.33040980345888
H        12.82517268992992   -1.07411923179090    5.26211910968494
H        14.04702664065842   -0.29103391709874    6.27930457064780
H        14.25232105162648   -0.34443036232783    4.53228429176883
C        17.25045870374127    9.28701344887720   10.23374686932322
H        17.71914617754091   10.22851498986546   10.48104094842065
C        11.42860566506738    0.51286448701229    7.25684582079913
H        11.72940058188290   -0.51812999295610    7.16754002966587
C        17.29379229247539    3.57141459903030    0.78200678729296
H        17.45229224664539    3.77921845136472   -0.26564869690647
C        12.79544521475120    1.09224911201210    5.19513312650748
H        12.22156272818994    1.09991092626001    4.26076414209161
H        13.54596805000104    1.89319483413623    5.11677274731589
C        17.69889389679263   -1.19282368517359    6.27869448540303
H        17.95668364598527   -2.18106626542497    6.62913866475612
C        17.10785008678339    8.92193490461809    8.90484502919388
H        17.46285575691693    9.58493186570939    8.12955550412265
C        18.35996585472948    3.60024774195298    1.66625799108422
H        19.35264103846416    3.82938475537608    1.30821208375373
C        18.07986049065479   -0.78359863440136    5.01384755750438
H        18.63493874398335   -1.45219339927759    4.37226236519252
C        16.79834099288997    8.45252179205805   11.23946389426369
H        16.91322703958432    8.73869776388035   12.27455965245447
C        10.22655408052312    2.21093401968426    8.44391477727879
H         9.60322887783855    2.50978268900170    9.27351099750859
C        16.04780309674556    6.88561053098647    9.58759067700438
H        15.57193543698923    5.94998653768544    9.33069675594072
C        16.19366565360724    7.24952168412135   10.91216604889405
H        15.83305091539066    6.59483150386490   11.69174377647882

