97
CSD_code = YIKTES | q = 1 | S = 0 | Stoichiometry = C44H48NOP2Pd(1+) | MND = 4
Pd        0.44089873943614    3.73011127679026   12.69893630516161
P        -0.94789842526266    2.88531140122125   14.26317921705586
P         1.49353136187075    4.89815138626200   14.44641887252519
N         1.53412492664985    4.52943640783771   11.15409154643417
O        -4.09288386469820    0.46556697094999    8.99614938163058
C        -0.59325106984603    2.87517997212092   11.20003879668065
C        -1.58070686376920    1.90756383474691   11.13537942973074
H        -1.81860259564033    1.29365255062858   11.99709193257811
C        -2.29295209692631    1.68284546449939    9.95467925043195
C        -2.01341890996452    2.43056603203875    8.80900000279625
H        -2.59321519945327    2.24902615004457    7.91705192772513
C        -0.99856377451369    3.36066390209179    8.83118768368269
H        -0.74936530970136    3.92419399021530    7.94388097484249
C        -0.28781697560858    3.57914750451220   10.01673521727768
C         0.86935298586314    4.43705707430177   10.06622298179753
H         1.18933298061482    4.92946031646006    9.14927274113449
C         2.80408123450025    5.21597827029022   11.23339624851124
H         2.86683766633290    5.65966773702725   12.24005623627791
C         3.91119690133762    4.15753462748457   11.11334307199327
H         3.87654767964955    3.72629900751693   10.10942860307782
H         3.72564799646514    3.35454911228797   11.83345779393021
C         5.27433843224618    4.79275793566683   11.36251703780251
H         6.05292984152836    4.03929220950031   11.23591743485353
H         5.32279519759754    5.15480690952013   12.39127969311848
C         5.51296358446739    5.95513622646826   10.40304995318813
H         6.47063391050729    6.42557010468985   10.62761128076622
H         5.55844480525397    5.57957672745015    9.37866137765987
C         4.39169435845361    6.98431524851038   10.51499378372839
H         4.56486022136901    7.80025450237725    9.81240964479013
H         4.37949912161704    7.40596840433381   11.52309452084583
C         3.04436769445374    6.33108518597644   10.21582787583839
H         3.07614482991885    5.92915878285979    9.20141389081846
H         2.24112358650777    7.07034780010503   10.27362866913240
C        -3.36551665609246    0.67553840073704    9.92908211173189
H        -3.46592389756569    0.11132398000709   10.87881804355045
C         0.74930800948484    4.16914326172335   15.98512459391449
H         1.21539149041897    3.19618975781809   16.16640548124064
H         0.92319077817960    4.80102294524747   16.85541779183497
C        -0.74402146778035    3.99237462732775   15.73267388852786
H        -1.19442402176414    4.95797257224038   15.47734108169198
H        -1.25497098861235    3.60415042685589   16.61322269725063
C        -2.73336645359882    2.78086851752175   13.93619920498650
C        -3.40699452433785    3.85719281509977   13.34227952997462
C        -4.75289985654920    3.70681368666113   13.03291220100009
H        -5.28105586862270    4.53202750200576   12.57865295766929
C        -5.42232943718698    2.52213396194701   13.27990722127426
H        -6.46701124677810    2.43073313550083   13.02729662623147
C        -4.74190870779337    1.44744957950983   13.82742525616543
H        -5.24831370460322    0.51008039886920   13.99770423692572
C        -3.40336968946596    1.57443374525241   14.14329315957512
H        -2.86726388886574    0.72217573159496   14.53522624113593
C        -2.70903507564212    5.13834474333814   13.00803518923944
H        -3.27269046411130    5.68811620646988   12.25767158794446
H        -1.70123613975716    4.93448722691469   12.60704486732532
H        -2.61569956854954    5.77822193856727   13.88646041318069
C        -0.36034722692134    1.23477702626367   14.76178889235297
C         0.51703342577163    0.65462602261906   13.83755058253243
H         0.74804752884119    1.18993006907736   12.90974824929072
C         1.08279909672791   -0.58366101862933   14.06561049872488
H         1.75088797728093   -1.01782628497628   13.33822470829022
C         0.78229089152654   -1.26149577137396   15.23606864307881
H         1.21956652503528   -2.22786444079678   15.43312085290014
C        -0.08976514471291   -0.70016149263126   16.14956490138342
H        -0.32919199580613   -1.23736617966341   17.05553179269794
C        -0.68206715634664    0.54144750498266   15.93627143915354
C        -1.62771534095812    1.05908677944945   16.97739742873541
H        -2.34537230634475    1.76299582116198   16.56369419254898
H        -1.07238223395132    1.54367256432367   17.78160523229862
H        -2.17770134077338    0.23121143590725   17.42050500536007
C         3.28969396941001    4.93218870833510   14.75278554124898
C         4.00946478253921    3.73033961568421   14.77472923231844
C         5.38101256715310    3.78056688551494   14.99025478299032
H         5.93988364936600    2.85710900153645   15.02497461738465
C         6.04068337412568    4.98680184858375   15.14316322391450
H         7.10596463536379    5.00100030336686   15.31245030118813
C         5.33589920421044    6.17551329065953   15.04248127560651
H         5.84888905329878    7.12188536579150   15.11663653842552
C         3.96973459265889    6.14703647229950   14.83892491286729
H         3.42611799725760    7.07538301071945   14.73628698805187
C         3.34279490669883    2.41125931659368   14.53260858079531
H         2.48164691064548    2.52991004702967   13.85563773066155
H         2.99406256491166    1.96503835129492   15.46448109521895
H         4.04504817064007    1.71217588826129   14.08258351406910
C         0.90341963954775    6.62685543407536   14.48014067673159
C         0.26296148128851    7.01194028216619   13.29702486136923
H         0.20417639745715    6.30366488476791   12.46761002036617
C         0.99133642956533    7.54078517709419   15.53933825081444
C        -0.29054137730257    8.26744097223686   13.14803361713203
H        -0.77818527548177    8.54207927627712   12.22533159049388
C        -0.21318791538401    9.16739481407879   14.19807390563400
H        -0.64205170784628   10.15279498409382   14.10357019758043
C         0.42188475070796    8.79993653225966   15.36905680601463
H         0.48509277067036    9.50723296802613   16.18308529508633
C         1.65864080673046    7.25441302611929   16.85087384763524
H         0.90640511446068    7.05410849359744   17.61514415898966
H         2.21880563961665    8.12935496570216   17.17617359400312
H         2.34413257663380    6.41368986033516   16.79476466389977

