69
CSD_code = YIKVAQ | q = 0 | S = 0 | Stoichiometry = C30H30Cl2N6Pd | MND = 4
Pd        9.20792689986611   -1.46370367586291    7.67471395438909
Cl        9.63465324888945    0.59917467098235    8.58208744395136
N         7.29357827564469   -1.06533763720246    7.87941547034946
N         6.65892238427567    1.95772070147316    6.07952506346441
N         5.43065711065426    0.13661237433296    7.99426809083253
C         6.54700005519954   -1.55300522190439    8.91108772929173
C         7.10641214906999    0.71067413932845    6.21545782214902
C         5.36138544157753   -0.79345690504489    8.99950670664336
C         6.61627802568484   -0.05968021828375    7.35178450601520
C         4.45580831636343    1.16860748161709    7.75002638353710
H         3.46899638660937    0.76034866957643    7.98632254527224
H         4.49504016879563    1.43489794793353    6.69266243600152
C         4.40853314801809   -1.07195555346642    9.97151809850299
H         3.49846182696237   -0.49818088894958   10.05590597039654
C         5.84502571380956   -2.87831147860509   10.73453837838852
H         5.99395029851661   -3.69345079323381   11.42674875564892
C         7.11882672849443    2.71218513745328    5.09567280539064
C         6.79839950521033   -2.61358481747918    9.77671639415650
H         7.69887928994885   -3.20541514261700    9.66122162046081
C         8.01546416192264    0.13633064601634    5.31754037969225
H         8.30676431450882   -0.91555063482088    5.39377377998780
C         4.74979296033017    2.40095377547994    8.59934489048006
H         3.99568000034253    3.16267542221238    8.42239123646370
H         5.72560628579218    2.79578108208972    8.33024098602404
H         4.75198902896750    2.14487749691930    9.65624741751700
C         8.48682651481860    0.92819585288457    4.28132838263401
H         9.18421400098527    0.52169319846379    3.56247498858658
C         4.67479283627544   -2.11736472435545   10.83126949066328
H         3.95751898616893   -2.36032234450858   11.60090533158723
C         6.58757746954807    4.10845095224331    5.01552116682282
H         5.83182151146647    4.25964857769785    5.78028323019706
H         6.15435141609839    4.29511787873758    4.03453265240334
H         7.39518439655694    4.82217387831535    5.16946732618034
C         8.05215191940544    2.23804026619062    4.17535384998820
H         8.41439873386285    2.88363745898464    3.39005083366584
Cl        8.78102531840135   -3.52478827031832    6.76675437208612
N        11.12299884901596   -1.85863891157175    7.47079643845288
N        11.75744943270565   -4.88199651425485    9.27030136690695
N        12.98578514220559   -3.06082454277615    7.35566680797552
C        11.86944743938528   -1.37117188886629    6.43891733763375
C        11.31006733509655   -3.63488494963278    9.13449160323962
C        13.05502176525648   -2.13079827039979    6.35040794512921
C        11.80027989930637   -2.86436414524816    7.99830369175716
C        13.96051569580190   -4.09297237948941    7.59980098581482
H        14.94734358041941   -3.68480184017700    7.36344242881586
H        13.92135036063525   -4.35925485718386    8.65717321765488
C        14.00779402065021   -1.85244398389088    5.37829686745874
H        14.91785180034372   -2.42623874834755    5.29391352136332
C        12.57127669627826   -0.04614495870429    4.61522653828175
H        12.42235014618699    0.76895044307829    3.92297531031740
C        11.29751536811495   -5.63651144906196   10.25411340094172
C        11.61792438811358   -0.31079277075745    5.57309290976202
H        10.71740917062024    0.28102152789232    5.68854621230936
C        10.40101222592268   -3.06059821568017   10.03241726445995
H        10.10965920019135   -2.00873531040643    9.95618296561656
C        13.66648149118694   -5.32535749105975    6.75054562136716
H        14.42058866176557   -6.08709827169401    6.92747337244874
H        12.69067903017539   -5.72016843732408    7.01971377289781
H        13.66424561894381   -5.06931551532237    5.69363420193231
C         9.92958011432373   -3.85252356815525   11.06854218244814
H         9.23217315931972   -3.44604742754951   11.78738730487514
C        13.74152465579798   -0.80707464840412    4.51851599141843
H        14.45879476767844   -0.56415373210492    3.74886568273284
C        11.82879410284251   -7.03277629272803   10.33430389514160
H        12.58460704732861   -7.18397468768123    9.56959819376109
H        12.26195444526230   -7.21946879448375   11.31532036982387
H        11.02121955346668   -7.74652486022681   10.18030493794980
C        10.36419478625609   -5.16238956045500   11.17444875261614
H        10.00191522035592   -5.80801424961085   11.95971841687256

