73
CSD_code = YIKVIY | q = 0 | S = 0 | Stoichiometry = C32H30Cl2N6O2Pd | MND = 4
Pd        5.33509980473367    6.78613607830107    5.76988625396504
Cl        5.73875013845788    4.52812663140727    5.83355734657072
O         3.42528688378254    2.20554238607667    0.14364594747096
N         3.41764839632313    6.34690689338020    5.81162443507987
N         2.97140240830696    4.09860091900281    3.07248398619010
N         1.60393724522447    5.11068526658725    5.48290322459455
C         2.64861900432540    6.43258476102962    6.93447270212985
C         2.85678493786076    7.14397720133617    8.11280205777766
H         3.73689837502125    7.76601076582963    8.22181980058312
C         1.88778879302457    7.03968706621257    9.08549355447116
H         2.00282610807575    7.57607539424367   10.01514907151047
C         0.74319715994469    6.25682795920882    8.89599882236566
H         0.01087495340723    6.20517467238974    9.68749766865814
C         0.52091742644345    5.55487746900340    7.72953245099451
H        -0.37013131714305    4.96111823646500    7.59665756114963
C         1.49180018557867    5.64892520884502    6.73995626302284
C         2.78268598333816    5.55288992601555    4.96481562512774
C         3.31720028174207    5.24643053500259    3.64190000483969
C         4.17899452079273    6.17028756415766    3.02005065821363
H         4.37621021785480    7.14957913820881    3.46524871636126
C         4.71561979012978    5.83804470141930    1.78777230660255
H         5.37512670524367    6.52520962771595    1.27740006013044
C         4.38804447146852    4.61749011270928    1.21810741877060
H         4.78771586896758    4.29873863753233    0.26839288417427
C         3.49712878315412    3.78576443083121    1.89238851797369
C         3.11085504103696    2.47806982499749    1.27869482403532
C         2.33443898886041    1.55487481164709    2.16957836800016
H         2.10784584262271    0.63134863043790    1.64427081816688
H         1.41718433932681    2.04453039063761    2.48473096277023
H         2.92108043936306    1.34484305887795    3.06058099202104
C         0.68845633151806    4.15868842472564    4.90830841080649
H         0.80527011740309    4.18655506484991    3.82398100241608
H        -0.32871456955368    4.46189578389068    5.17334601309379
C         0.98794639085272    2.75669723772283    5.43078173370643
H         0.30653990057986    2.03649931560582    4.98704982117013
H         0.87953410427618    2.72208707752551    6.51235178942762
H         2.00890618248189    2.48732945408779    5.17539024126614
Cl        4.93114040344677    9.04371373199925    5.70568699335848
O         7.24466087388075   11.36570998763291   11.39554195312575
N         7.25292990205392    7.22382726526125    5.72793172797252
N         7.69881784769433    9.47253858450835    8.46680366336661
N         9.06642929072479    8.46041728909199    6.05644594458538
C         8.02180474250101    7.13838613090609    4.60495826518093
C         7.81353468742016    6.42711130229393    3.42657935425079
H         6.93347248650398    5.80497577611134    3.31764672922155
C         8.78241838167197    6.53156902199282    2.45379207673323
H         8.66736209705387    5.99519912224712    1.52413005958778
C         9.92693856718633    7.31455814058161    2.64320524275302
H        10.65916042695137    7.36635372808868    1.85162437057546
C        10.14925692860726    8.01649258444007    3.80967081952135
H        11.04023431006802    8.61037825310974    3.94245844409426
C         9.17852553137185    7.92222294643629    4.79936974119136
C         7.88781273759033    8.01800720831651    6.57463354748416
C         7.35319249114943    8.32459893701809    7.89748673956581
C         6.49141189502393    7.40074151458028    8.51934470702489
H         6.29427035647796    6.42140679825935    8.07419814870707
C         5.95464965910680    7.73306050476555    9.75154271293582
H         5.29511333622685    7.04591315199138   10.26190059090794
C         6.28209012263418    8.95368629693283   10.32112994936753
H         5.88231901375545    9.27249143478146   11.27078574627322
C         7.17297833830494    9.78543397320685    9.64683741392344
C         7.55897372025313   11.09325776694937   10.26043983949520
C         8.33503374830024   12.01663435376402    9.36943991278846
H         8.56138875808165   12.94026215015631    9.89467313335493
H         9.25240860107621   11.52725011466629    9.05421809742273
H         7.74822762205522   12.22642976764106    8.47849102212059
C         9.98184834237516    9.41250866547091    6.63099405020892
H         9.86504097509933    9.38467562735878    7.71532421588157
H        10.99902844839145    9.10932173663344    6.36596962911376
C         9.68236898331628   10.81449278069496    6.10849848918591
H        10.36374471821731   11.53470364232770    6.55225510644149
H         9.79084226903838   10.84909818310303    5.02693633424896
H         8.66139915157127   11.08386086876420    6.36383291241812

