52
CSD_code = YIKXIB | q = 0 | S = 0 | Stoichiometry = C18H25Cl2N2O3PPt | MND = 4
Pt        0.58912474372520    6.42579201744380   14.79196717098074
Cl        0.79037033359758    7.44892456082654   12.80074065626993
Cl        0.34275161670575    8.37283514586222   15.90318644342697
P        -1.87287268747486    4.03739897167469   14.43434106486003
O        -2.78000512734967    3.19761977474575   15.21567933025160
O        -2.06460480906995    5.60137729344564   14.67657029553774
O        -1.88054436217369    3.87665710814007   12.84675379046755
N         0.41674985126196    5.30122342654009   16.43014476890292
N         0.72106247575464    4.55580788220994   13.84306707818416
H         0.24240293345086    4.66673224678100   12.94293707104555
C         0.53677118806294    5.68262539935119   17.70276180480573
H         0.74583188282855    6.73321621433690   17.85681403412839
C         0.37648151055460    4.79950226603240   18.75353446806887
H         0.47361257862055    5.15094432498813   19.76765727698390
C         0.08478735009630    3.47050662504509   18.48088295974251
H        -0.05279389000620    2.75720291353558   19.27797591924310
C        -0.03157660341185    3.07429131168706   17.15659219610954
H        -0.26638533405721    2.05453955528416   16.89634433147764
C         0.14401823607727    4.01301888805142   16.15382070123238
C        -0.06554159670000    3.69099188116199   14.70759228890888
H         0.08611237064254    2.62322521852264   14.50850796910801
C         2.08147421462216    4.09387081191936   13.56184632480317
H         2.57976027371886    3.85306285599227   14.50565728381944
H         2.60933242037397    4.93086637314311   13.09683346025346
C         2.11374420247571    2.88058436262027   12.61763101896282
H         1.83451107617974    1.97085784811891   13.15376216618507
H         3.14080861392994    2.75089920727343   12.26826042485882
C         1.19165847706161    3.07382614520393   11.44141042696084
C         1.33586175203999    4.17557894208945   10.60390579929724
H         2.12123038302602    4.89418181796266   10.78344381014375
C         0.47240797934125    4.36561998488614    9.54046642427126
H         0.59301120385414    5.22906054070833    8.90350029856924
C        -0.54330586604508    3.45558930181366    9.29640065637811
H        -1.21688678373658    3.60552359801623    8.46560316224772
C        -0.69169430288626    2.35557547923948   10.12258661247196
H        -1.47896029918839    1.63928417679545    9.93828134192267
C         0.16749575700578    2.17025763059452   11.19136063131621
H         0.04096454849526    1.30969767198849   11.83385288151450
C        -2.85068292929926    6.10337113507110   15.76449679950965
H        -3.01930345120482    5.29860988966123   16.48631046324601
H        -2.26039887288873    6.90422185952348   16.22010516454940
C        -4.17220876365581    6.63433308459576   15.24148708135843
H        -3.99398502401432    7.38870041407162   14.47968429488454
H        -4.73298392566879    7.08104933637142   16.05750536960200
H        -4.75634287495105    5.82293943510048   14.81177662072421
C        -2.89080528792481    4.48662268540398   12.03670898262732
H        -3.08161334313628    3.77707554669702   11.22680620524289
H        -3.80520700373775    4.61197502405756   12.62489234028764
C        -2.40262092836315    5.81704534289180   11.49258980565858
H        -1.52204430000088    5.66792888650136   10.87245708264156
H        -2.13504649231217    6.48612153511862   12.30648541889920
H        -3.18382311424680    6.27763605091950   10.89422002704921

