46
CSD_code = YIKXEX | q = 0 | S = 0 | Stoichiometry = C16H21Cl2N2O3PPt | MND = 4
Pt        1.96268691225486    5.33457846147901    5.41245281435096
Cl        4.10132046931109    4.66300192882902    5.17553196662041
Cl        2.46867745593285    6.54223192187533    7.24934238371218
P        -0.25062991511839    7.30503437476434    3.41502877730298
O        -0.68352527207949    8.51245829722074    4.11903853691474
O        -0.97528975364647    7.04603413638092    2.00568127004360
O         1.31457263386539    7.17519631389620    3.15377776949817
N         1.30566110143482    4.32007366831640    3.83491947322518
N        -0.09377067846043    5.85687006760113    5.61504125866650
H        -0.10552738007212    6.84050558169139    5.90195479716916
C         1.96812617314424    3.39777082891830    3.13502617533547
H         2.98615650228319    3.21286675144960    3.45361343663758
C         1.39931081003009    2.73400103232885    2.06502213440704
H         1.97301099124450    1.99900423343309    1.52445898513325
C         0.09232537613548    3.02948198174151    1.70421877128050
H        -0.38244658427360    2.52937608220820    0.87468187248675
C        -0.59534573292205    3.98595620692547    2.43475928852648
H        -1.61124272800125    4.25303832164184    2.18979103622003
C         0.04089824737477    4.61460386733821    3.49291228568538
C        -0.62443739444042    5.70831614601857    4.26982782995192
H        -1.71776775764419    5.58359802685808    4.27016860338729
C        -0.65991251973768    5.04850376672225    6.64242459069341
C        -1.09933262036574    3.75451259264714    6.38335661974924
H        -1.03037645033907    3.33741574384206    5.38897961313036
C        -1.61491504617812    2.98406179287550    7.41139918552950
H        -1.94932402621117    1.97893652497528    7.20265791651902
C        -1.69673599013781    3.49182505804722    8.69574281131679
H        -2.09479244190214    2.88395449691907    9.49343234073376
C        -1.25980812996905    4.78114192011312    8.95331240439844
H        -1.31590401372421    5.18313127370866    9.95310940536695
C        -0.75243636081029    5.56226592442213    7.93306037830890
H        -0.39642154251602    6.56144407362655    8.13487442214792
C        -1.58632987607775    8.14285466622178    1.32801425613721
H        -2.28223483316512    7.68853445660210    0.61815463858158
H        -2.14024732304755    8.74445694924733    2.05482429571894
C        -0.55890970872476    9.00443028401780    0.61695562759408
H         0.05372110518923    8.39331186407482   -0.04166632899339
H         0.08181751705721    9.48707104960296    1.35242972139111
H        -1.06143982784970    9.76866583571008    0.03018057368172
C         2.16740632076737    8.33253523567942    3.16741128216791
H         1.63486773785270    9.15568953123219    3.65515748491888
H         2.37452750201920    8.60089966461289    2.12583112794424
C         3.44915641120642    8.00098588869493    3.90316707547656
H         3.94787085861169    7.15729154049823    3.43245850658377
H         3.23263344450315    7.74321505120950    4.94006344777060
H         4.11245633719087    8.86126658376968    3.88981913657973

