43
CSD_code = YIKXIA | q = 0 | S = 0 | Stoichiometry = C17H20AuClN2O2 | MND = 2
Au       -1.06551898415235   -0.27729368661166    4.69942180114393
Cl       -3.13127521020907   -0.32056929515481    3.82320370029668
O         2.53276275597752   -1.90885094335410    2.94417460611416
O         0.74169772772991    1.24886219065120    8.85011126475798
N         1.93444954464507    0.06567353892670    4.98765133137549
N         1.01595979846789   -0.49699052464690    6.84314943099540
C         0.75074803396134   -0.23625853903517    5.54927354946553
C         2.35084736462902   -0.34640663933930    7.09740088173137
H         2.77334946112922   -0.49037183345845    8.06946255998512
C         2.93174346728718    0.00651338151525    5.92649519195402
H         3.95651903662966    0.21561577346896    5.70271515686717
C         3.05355161276828   -0.60211297357754    2.90250845599552
H         4.03901518017459   -0.57662971232039    3.40048229138768
C         2.11899064119319    0.40937594112503    3.59458771987877
H         1.12881562243461    0.33583060903750    3.12846627156317
C         2.65314950167342    1.83529118863062    3.44981200538568
H         3.62365260413936    1.91593634670886    3.94499176647569
H         1.96401830372917    2.52562690613016    3.94001822199926
C         2.80429242446190    2.19118855697254    1.97461877408073
H         1.82567105254700    2.15973237009638    1.49275306300058
H         3.19308561670060    3.20623845587772    1.88212341505121
C         3.74306900380538    1.20457880032475    1.28728717459655
H         4.73814973826354    1.27589764699421    1.73298112430041
H         3.83252793537642    1.45177940325856    0.22912768273815
C         3.21836953264420   -0.21853567075874    1.43281730575320
H         2.24547045701562   -0.31535751692476    0.94922028442626
H         3.89503048073766   -0.93320434917167    0.96416035477530
C         0.02157901837997   -0.78607496333792    7.83338132011213
H         0.25582326420169   -1.72450674563542    8.34751187903843
H        -0.93742321688503   -0.88189405721167    7.31334355277928
C        -0.05691616829332    0.34127129570656    8.87142828690241
C        -1.13072084470687    0.23602355447360    9.87680477937610
C        -1.19306501268207    1.23254156075310   10.85492973406597
H        -0.45853817719113    2.02347789760055   10.82727689458887
C        -2.17118889003020    1.20364012159791   11.82824948430929
H        -2.21015691569949    1.97939211999029   12.57789118872244
C        -3.10363648443811    0.17820331363165   11.83821073470158
H        -3.87227362362171    0.15287439093704   12.59593891916382
C        -3.05190622998014   -0.81520939346644   10.87243834950314
H        -3.78117968035328   -1.61113847434082   10.87904574547595
C        -2.07445704716949   -0.79256165470827    9.89559583906914
H        -2.06013202544279   -1.57408489591421    9.15265030360281
H         2.27984933016061   -2.13421349543172    3.84618760254418

