113
CSD_code = YIKZUN | q = 0 | S = 0 | Stoichiometry = C46H63OPRuSi | MND = 7
Ru        0.74800907616585    4.39913883619764    8.25233011699791
C         1.53672192091121    6.45249062894004    8.67691176375965
C         2.56810143517148    5.70557399676025    8.07228682309280
C         2.10713768253801    5.27602501971913    6.77667624204329
C         0.79209851941728    5.83244982380734    6.56637080891454
C         0.42448701347722    6.53523114802794    7.75376295700593
C         1.60804792732438    7.21915468507243    9.96042163153950
C         3.95338935256810    5.47675895772365    8.58575262270490
C         2.99042741962235    4.67882615862887    5.72572903051452
C         0.08583013274399    5.88817445509947    5.24462647060449
C        -0.70975265046335    7.50663961392618    7.90841642766889
O         1.77024180195128    2.83739692028777    9.30538794034585
Si        2.75725192077845    2.25987834917471   10.37537412616526
C         4.17440851113165    1.31776727143357    9.53283342542979
C         5.00702949308138    0.46351427761151   10.24459641575878
C         6.02409400014238   -0.23250322744560    9.61611377409382
C         6.22296606336364   -0.08956878978712    8.25289274671996
C         5.39725248746777    0.74994483787512    7.52471647075579
C         4.38681988552111    1.44264060483485    8.16632532227428
C         3.47340030076794    3.60389975121930   11.51930793065076
C         2.61337340390252    4.54962582216960   12.06686522950826
C         3.07551611709634    5.54922887025736   12.90476420516923
C         4.42506254467710    5.62550535471819   13.20633929939261
C         5.29932560889061    4.69889101927428   12.66380081818792
C         4.82376522123828    3.70030962687797   11.83173304576432
C         1.89680256978028    0.98781044550224   11.51559739115325
C         1.55468153114110    1.28426600997537   12.83050605942218
C         0.89145299830951    0.36760437582230   13.62879214417802
C         0.55316619114926   -0.87508738346471   13.12179320303742
C         0.90241120974170   -1.19816744982349   11.82106535782727
C         1.57033739826984   -0.27589066441979   11.03530132074138
P        -0.81408588745502    2.80334266659208    7.67147903598122
C        -0.33817386039313    1.25706140441672    6.74597752343289
C         0.64003744263599    0.41287108808879    7.55836798378957
C         1.22766461302716   -0.72419326597512    6.72656108532471
C         1.90935789765133   -0.18803166390537    5.47434131830405
C         0.90543453791101    0.59664803457341    4.63875584730724
C         0.32564606544419    1.74554321874555    5.45630463796452
C        -1.29463012461403    2.23497011906805    9.38319516534581
C        -1.28444810280883    3.47809881493919   10.28384770026992
C        -1.31274597198276    3.05278926555342   11.74747587448729
C        -2.54107754159810    2.18428175399428   12.01515538091639
C        -2.55764446375200    0.96493256684446   11.09655666241024
C        -2.54259462136414    1.39713846801364    9.62980530822001
C        -2.33763257323085    3.35962606482613    6.73042833024317
C        -3.37777972296918    2.32597771033976    6.30360139084161
C        -4.43689486252697    3.00026840180658    5.42890183635206
C        -5.10367167431152    4.16239489896941    6.15864712118176
C        -4.05801755507584    5.17973307415529    6.60580709328029
C        -3.02097189742413    4.49445311700743    7.48993190680857
H         2.38661044799020    6.82792560565833   10.61086873289194
H         1.82810441961072    8.26799688056452    9.74816248867016
H         0.65911733139909    7.17937693685976   10.49515106129135
H         4.20938040789886    4.41871970509268    8.54964686490823
H         4.66896351851563    6.02307422863205    7.96810700536789
H         4.05532830035801    5.80935132374794    9.61542439102493
H         2.40939404406458    4.25858652283401    4.90785637097638
H         3.64298542531227    5.45357380889678    5.31658438910578
H         3.62404525390203    3.90070696736697    6.14749333864397
H        -0.97540329862677    6.08655299970505    5.37322386042176
H         0.51306426077480    6.69109411232307    4.64036859193265
H         0.20203997442857    4.95430137650279    4.69844526359264
H        -0.32892887390272    8.52519421273772    7.80620062107930
H        -1.47280466376446    7.35371500858374    7.14898969800962
H        -1.17536361802023    7.42481855825706    8.89028178489055
H         4.84977753642668    0.33829903900567   11.30765266440228
H         6.66379442797565   -0.89149058805918   10.18771061114984
H         7.01638663902509   -0.63390378567782    7.75965679482223
H         5.54488261971286    0.86035517726880    6.45825053362473
H         3.73136361884370    2.09399736239591    7.60397022579881
H         1.55939524021236    4.49813944106856   11.82368920828350
H         2.38644166225410    6.27035816346702   13.32551680070575
H         4.79295010095879    6.40459609898278   13.85971220866829
H         6.35494921916454    4.75648944743626   12.89243250004089
H         5.51491571080546    2.98242524450946   11.41190999726634
H         1.82109017427308    2.24916912464183   13.24058007902865
H         0.63591452443292    0.62336941407967   14.64825694772736
H         0.02854282379190   -1.59104880778509   13.73913653923792
H         0.65513318250477   -2.17267947960832   11.42152101482383
H         1.85641661924771   -0.54081990791576   10.02761387674251
H        -1.22700058187131    0.65906199744136    6.51680352742007
H         1.44186925516708    1.05901366557021    7.92224946740784
H         0.12795804398505   -0.01391036304501    8.42234409074880
H         1.94841752021163   -1.27765934473576    7.33187215410064
H         0.43149402397015   -1.41609471956694    6.43624869679852
H         2.73189603664197    0.46591237342594    5.76751679462555
H         2.32341572510900   -1.01214031456165    4.88949856487359
H         1.38683773055947    0.98984711731112    3.74028939095521
H         0.09869080670835   -0.06901620182620    4.32015644199308
H        -0.39636480354398    2.29911385366794    4.85012288974299
H         1.12812044922211    2.43164529267033    5.74677811794219
H        -0.41345987545460    1.64519790175684    9.67882464995954
H        -0.35295156199266    4.06664947370364   10.06886001194767
H        -2.14741896635402    4.11522476038065   10.07742351618817
H        -0.41127314341692    2.48104584586992   11.97477713568224
H        -1.33307111246792    3.93083583647310   12.39774707524213
H        -2.53664216592989    1.85842825658116   13.05674868037223
H        -3.44777188535811    2.77360748166739   11.85251198296172
H        -1.67857029664408    0.35003835232122   11.30189045896840
H        -3.44628457479691    0.36237819322611   11.29804658397624
H        -3.44194682327477    1.98099058849056    9.42245538745889
H        -2.54567331239699    0.51886854305951    8.98102718610065
H        -1.90388055848415    3.79205644136035    5.81810406726623
H        -2.91701504379271    1.52205959089573    5.72925876856878
H        -3.85707129099169    1.88690776822217    7.17844163074935
H        -3.96436303615889    3.37295899402401    4.51669268557753
H        -5.19061058835781    2.26585799230307    5.13691555056551
H        -5.83614080127539    4.63935281510221    5.50433531039900
H        -5.63578564724188    3.78320371276675    7.03416447387341
H        -3.57023679215618    5.60799779108716    5.72674215450979
H        -4.53858440628733    5.99409812024209    7.15256153923289
H        -3.52992953623061    4.09251356725702    8.36746919586944
H        -2.26146860172841    5.20657534122097    7.82607502889576

