88
CSD_code = YIKZOH | q = 0 | S = 0 | Stoichiometry = C31H50F3O2PRu | MND = 8
Ru        1.79292852140547    2.32798818792792    2.68528310108104
P         1.87680080849757    2.26289520927865    5.05090355416235
C         2.57430826076197    3.76995936573794    5.91608621991993
C         3.65629687360065    4.46612730586424    5.09014915296556
C         3.97162521393629    5.83398079582636    5.68998973501882
C         4.45215725673823    5.68444870149419    7.13009290036392
C         3.41553598499124    4.93225513525633    7.95769615300327
C         3.11437059280148    3.56864137260051    7.33435547803887
C         2.80450159091174    0.83672269087802    5.82406610738054
C         4.19467246193191    0.77542521963015    5.19320304044769
C         5.00745693837073   -0.38998936642049    5.74870042599072
C         4.27931200008777   -1.70650392403069    5.50472807038066
C         2.89531555162050   -1.66017388026044    6.14141046517909
C         2.08279399351042   -0.48785521864781    5.59524023384937
C         0.16425169486233    2.10464249080741    5.77907956728424
C         0.04051536673350    1.99917232438414    7.29947696508623
C        -1.40930991672630    1.67845892602583    7.66633162771431
C        -2.34521505097517    2.76970800058087    7.15458765234271
C        -2.19422267812723    2.93873223001649    5.64548322693532
C        -0.74105458437366    3.23301804680745    5.28541011704662
O         1.07053753585891    4.30831724030307    3.11799908033519
C         1.37861258614712    5.42935222046382    2.41863387411838
C         0.51352315844692    6.56436322709735    2.97856762334414
F         0.69156988156217    6.75200586135630    4.29278734770729
F        -0.79771252071572    6.33934950962107    2.80039459783344
F         0.77269956026525    7.74899137742723    2.38840805017093
C         3.56894258760787    2.73313314649601    2.51915805905216
O         4.67747005324779    2.90691082801521    2.24396850461512
C         0.12685457780791    0.75463062791386    2.22963311971291
C        -0.17919200820060    1.95291807698295    1.55400950964785
C         0.90834748703851    2.26152543697060    0.65955078822816
C         1.86350003912913    1.20669948455210    0.75956304942890
C         1.41899476162878    0.29126866085683    1.76797470279292
C        -0.84464620415076   -0.08510849000635    3.00701762827364
C        -1.47521668804744    2.70522260390775    1.57908061900072
C         0.84654259943644    3.25677269754188   -0.46137074654901
C         3.00643312859658    0.96575768807466   -0.18145148667470
C         1.95350766596916   -1.10886411670286    1.89411788766093
H         1.71523429760376    4.45174124741801    5.94978454548608
H         4.56684211112546    3.86318877955461    5.06827971734515
H         3.30248250951399    4.57782061981875    4.06619303652034
H         4.73807291518303    6.33146672719977    5.09247254623426
H         3.07215376199676    6.45200011510047    5.66644548456700
H         5.39472713041914    5.13163761518108    7.14217832513240
H         4.63597804079828    6.66741867976251    7.56797052131491
H         3.78101710334073    4.79594367371798    8.97833996917440
H         2.49638936625876    5.52006950738637    8.00619262478220
H         2.40700438323531    3.03472719167406    7.96735323944321
H         4.04038077990100    2.99131052555759    7.29720945732888
H         2.89919170592508    1.01425830800107    6.89923987894716
H         4.07643935752385    0.66198664668079    4.10959193573067
H         4.72676471183356    1.71166345013674    5.36720823447392
H         5.99062843227939   -0.41174494381122    5.27496302556990
H         5.15621791153929   -0.25224567158427    6.82265941120607
H         4.17959331046555   -1.87116003341048    4.42985248300011
H         4.85359520766584   -2.53720881622259    5.91970377477180
H         2.36449952978306   -2.59578461505363    5.95032085971370
H         3.00002881438456   -1.55307019946334    7.22403160992117
H         1.10528665797984   -0.48114785759303    6.08040017269751
H         1.93865123314928   -0.61184736473531    4.52128955780458
H        -0.20851006127022    1.16847298128285    5.34376523718388
H         0.69634772803768    1.22371869264891    7.69987022560359
H         0.30696982794090    2.95223765528117    7.75725283954889
H        -1.69405083959448    0.71842248990766    7.22758720281982
H        -1.50214609803179    1.58819556135028    8.75105081852693
H        -3.37896415142928    2.51951347903836    7.40308610689112
H        -2.10229427117464    3.71303619782994    7.64830492111663
H        -2.52272104365410    2.02119841069686    5.14885722670008
H        -2.83221817386136    3.75259867909966    5.29599192755996
H        -0.44658928589204    4.17625490259923    5.74853813029219
H        -0.62519264213095    3.35656903014546    4.20833556612257
H         2.43128548121045    5.76367072013920    2.52350846754526
H         1.14819337468833    5.38109464677684    1.33652661692774
H        -1.60336695720098    0.52662974448578    3.48952820554742
H        -1.35044777298550   -0.76733568690365    2.31857305069507
H        -0.34839152367596   -0.68521322489436    3.76725215908827
H        -1.31298434433992    3.76107477055078    1.79787552394421
H        -1.96003897676223    2.63198221437003    0.60336051182237
H        -2.15298137756499    2.30523105036896    2.32943536833379
H         1.82117332561448    3.70578415542205   -0.64900763153794
H         0.52558222311288    2.75225877001671   -1.37659679092266
H         0.13268795940250    4.04846744954415   -0.24502852664926
H         3.81067570912581    0.41799893492489    0.30560341238800
H         2.65466733914017    0.37458279949354   -1.03037560151960
H         3.40851162803621    1.90195034766172   -0.56256934192683
H         1.43526346648729   -1.66990712876519    2.66782252454536
H         1.80721408586356   -1.63296157986027    0.94663951428169
H         3.02053701681225   -1.11414934315314    2.11361592101988

