69
CSD_code = YIKZIC | q = 0 | S = 0 | Stoichiometry = C32H32N2NiO2 | MND = 4
Ni       -0.00000056671292    3.92954923257794   -0.00000014891437
O        -1.44103731094601    4.64808061058403    0.87917128474258
N         0.82979440309398    3.54645466695617    1.71786694608043
C        -1.44568781968332    5.26913551167026    2.00185885147478
C        -2.47773815883635    6.21135973542191    2.24367734341236
H        -3.19061463384133    6.36891172152025    1.44835701009117
C        -2.55190855428833    6.90369050581602    3.42023515955721
H        -3.34080791305750    7.62683802248989    3.57066094391516
C        -1.60656203003028    6.69189425780126    4.42703515478267
H        -1.65940638339448    7.25547774775068    5.34616107902280
C        -0.61302018129657    5.76505802854092    4.24063813594764
H         0.11702566896455    5.61946896477064    5.02250570887045
C        -0.50246529848118    5.03227773009395    3.04783231690596
C         0.49941197250560    4.01114460347408    2.88165803189117
C         1.12084780965627    3.45008082818764    4.13424129603435
H         1.62929011178238    2.51122517525274    3.92808598402663
H         0.35589558967690    3.28490738471180    4.88935320035222
H         1.84977761756707    4.15242800034954    4.53656347558385
C         1.76584849640004    2.48784239349287    1.61390660802442
C         1.28685601610027    1.18545544542162    1.42524019719318
C         2.19729617574769    0.14756819781036    1.31062083320071
H         1.83609811365723   -0.85991707032100    1.16317863455839
C         3.55783498860328    0.39374428430380    1.37007078633904
H         4.25848356649822   -0.42324913399359    1.28052280927886
C         4.02078506241101    1.68977028853566    1.51266709339228
H         5.08386646168826    1.88364145714512    1.52265118037739
C         3.13833875615779    2.75324217902760    1.62952688006330
C        -0.18977772208149    0.96190566850754    1.30522524979651
H        -0.40387217386574   -0.03827322455092    0.93730146682379
H        -0.61512968765769    1.70019355639835    0.60111724475669
H        -0.68863593690247    1.09944402622013    2.26555318287032
C         3.62474604682740    4.16674763737667    1.72039616151080
H         3.05643945925010    4.78859767976531    1.02829273892248
H         4.68006796449991    4.22562400301535    1.46677935116994
H         3.48885025042475    4.56970193864879    2.72392837425832
O         1.44103559451052    3.21101643420375   -0.87917107456098
N        -0.82979434469340    4.31264601791998   -1.71786682910567
C         1.44568678624527    2.58996394276072   -2.00185998362380
C         2.47773651057729    1.64773926829598   -2.24367927188162
H         3.19061178756070    1.49018476455501   -1.44835836114082
C         2.55190776307572    0.95541104450454   -3.42023852068686
H         3.34080651282985    0.23226294997602   -3.57066479610568
C         1.60656288766367    1.16721064418809   -4.42703936203940
H         1.65940795748802    0.60362929338149   -5.34616656748660
C         0.61302156912204    2.09404724598796   -4.24064144147515
H        -0.11702309463033    2.23963873389048   -5.02250966193749
C         0.50246569346247    2.82682486302080   -3.04783404999755
C        -0.49941135711197    3.84795796141836   -2.88165854853163
C        -1.12084669532199    4.40902384545886   -4.13424110483107
H        -1.62928938425862    5.34787897899788   -3.92808437638776
H        -0.35589412581436    4.57419890960806   -4.88935230463186
H        -1.84977608770473    3.70667718869257   -4.53656493779220
C        -1.76584853860313    5.37125814126567   -1.61390540121347
C        -1.28685625952978    6.67364493981873   -1.42523747501138
C        -2.19729657972541    7.71153194509550   -1.31061712052610
H        -1.83609867757559    8.71901710454768   -1.16317381580123
C        -3.55783534366813    7.46535573804108   -1.37006752307193
H        -4.25848404567148    8.28234897191275   -1.28051885941481
C        -4.02078522600179    6.16932983181740   -1.51266539825920
H        -5.08386660423871    5.97545854699243   -1.52265006110043
C        -3.13833876058401    5.10585820184228   -1.62952634987080
C         0.18977743631922    6.89719481258094   -1.30522203762981
H         0.40387166055213    7.89737325614301   -0.93729690222336
H         0.61512950239323    6.15890609072669   -0.60111499167795
H         0.68863575995040    6.75965785156107   -2.26555011119973
C        -3.62474579136707    3.69235277631036   -1.72039748750936
H        -3.05643960379923    3.07050210048577   -1.02829429486590
H        -4.68006789234320    3.63347599210503   -1.46678152286399
H        -3.48884916954318    3.28939955712382   -2.72393002185480

