45
CSD_code = YILCUT | q = 0 | S = 0 | Stoichiometry = C12H27AuNOPS2 | MND = 2
Au        7.43354659906748    4.34031120827969   11.74795350771790
S         8.81612970115855    3.35463185670850   10.09273758736451
S         6.26423735431066    4.43115668242220    9.12753924701730
P         6.25921228724102    5.26417234533592   13.45122659884440
O        11.70688777007143    2.79289318680366    7.28118512061444
H        11.78847349985490    2.39906385840183    8.15765003261820
N         8.03951525078305    3.23643861842977    7.57157207668344
C         7.71166576829336    3.64943159548175    8.80270014581191
C         9.28459106962135    2.53917619936719    7.34652395473544
H         9.19960792485680    1.93744478062740    6.44195480479261
H         9.46612188412445    1.86540804308693    8.19190381909761
C        10.49030741168784    3.49127809670094    7.22696956863368
H        10.48432879716084    4.00372237850494    6.26336057340618
H        10.43212630611040    4.24173591071782    8.02533392582252
C         7.11865917419991    3.40559931984632    6.45355762315823
H         6.33410416561032    4.07946396794605    6.81303991704699
C         6.47096061617992    2.07123207678862    6.08334852458899
H         6.00271657213949    1.63051001703514    6.96028780663055
H         7.20152163888741    1.36943035713256    5.68695230521586
H         5.70649753316401    2.23507000035147    5.32880430052198
C         7.79882877706330    4.05677093960178    5.25372604441219
H         8.27582202684568    4.98770668919857    5.55004545573058
H         7.04813362356609    4.28042615333748    4.49998492324579
H         8.54409597747419    3.40213563300390    4.80877208711854
C         4.46564633719943    5.50077898923434   13.14021320529652
H         4.02857664470596    4.49758672860387   13.09285105775672
H         4.01226811358144    6.04101475631947   13.97802332648118
C         4.22513790436020    6.23401952825800   11.82561542317092
H         3.16205178612252    6.25727161812007   11.59692184400506
H         4.73824416720761    5.73051575771712   11.00780432001311
H         4.58489355911372    7.25940931886668   11.87616945856726
C         6.31025334689649    4.28246147079840   15.00767538556793
H         5.85693666503243    3.31685137470108   14.75743497479296
H         7.36928744072861    4.09371264596059   15.21203445233492
C         5.63112076664701    4.88834801843751   16.23032702629104
H         5.72672117930311    4.20705590139853   17.07347107812593
H         4.57176109300739    5.05452086135127   16.05121188670482
H         6.09060973984245    5.83363290928622   16.50883793775777
C         6.83361549039255    6.94491683349019   13.91646822858151
H         6.71872659881300    7.56009274291000   13.01866499146221
H         6.18816999455736    7.35744874282469   14.69831868777285
C         8.29572883578720    6.92614159690305   14.34383763749692
H         8.66694795241881    7.93985718679899   14.47865325352644
H         8.90118281694004    6.43595559561045   13.58146202070831
H         8.42502783788253    6.38739750728950   15.28027385275309

