102
CSD_code = YILDED | q = 1 | S = 0 | Stoichiometry = C50H44NP4PdS2(1+) | MND = 4
C         4.29813304295312    7.06282728518019   12.74588244375158
C         5.67898272121827    7.18408245980771   12.90038910698000
H         6.35134064672482    6.61015544801703   12.27647337806568
C         6.19018079441712    8.05549034236467   13.84478844957557
H         7.25896556138728    8.13991251910929   13.97384981115212
C         5.33500209229318    8.82210084012421   14.62104177940852
H         5.73889036297009    9.50250323686862   15.35481117810486
C         3.96299532808819    8.72440002239616   14.44795411644067
H         3.29781312366778    9.33193398893620   15.04231737389510
C         3.44054451427728    7.85228412973920   13.51076957111832
H         2.37262282294432    7.78446084600848   13.35617738902763
C         1.99890361374437    5.43990434960982   12.02828673937727
C         0.96127592875149    5.37390335720189   11.10632642753840
H         1.14077301927867    5.71207769393924   10.08573107173751
C        -0.27821326227019    4.90415629442565   11.50181380207741
H        -1.08959575364129    4.86139269723229   10.79213683732264
C        -0.47611337280015    4.49820555984197   12.81142228748202
H        -1.44470633114064    4.13790877922015   13.12258717964615
C         0.56289294066083    4.55576093067099   13.72909677628035
H         0.40189743024748    4.23822409462328   14.74804320005603
C         1.80462210743031    5.02357864781522   13.34319945568635
H         2.61789778978203    5.07919186825544   14.05424447116190
C         4.60241593618168    4.44225834813487   11.50011502376420
H         5.66684016763019    4.68004917589032   11.58043704546662
H         4.30386234636000    3.86258470698358   12.37874691220211
C         4.33175378708302    3.69275033544348   10.20432314798879
H         3.27346784457528    3.40971126829310   10.15225056523420
H         4.95186424113392    2.79615596857792   10.10950350322299
C         4.59654317166754    3.87005175209265    7.31051801536066
C         3.79788196354312    2.73147033733156    7.22782588513095
H         3.22864422807078    2.39928221418202    8.08413253880089
C         3.73658437204042    2.02232942579206    6.04163066852231
H         3.12419835169929    1.13542265383574    5.97918833828506
C         4.45472628821575    2.44892108838962    4.93555653296352
H         4.39740704767502    1.89504226829275    4.01117219978324
C         5.24354435040098    3.58641893544054    5.01434015175845
H         5.80140202099476    3.92029106812005    4.15294549012836
C         5.31666785655044    4.29916011604398    6.19638186530686
H         5.92045911886435    5.19374952489235    6.26537560223510
C         6.46080792245277    5.18121780606193    9.02485459324530
C         7.40479370518081    4.17490346248968    8.83549347969651
H         7.08817523036739    3.18702338537694    8.52996191136721
C         8.74447222346414    4.45480791575724    9.02899333294916
H         9.48168405143702    3.68017521070130    8.88302607022107
C         9.14276179917571    5.73008552052743    9.40278054526675
H        10.19123628990162    5.94334706683268    9.54422530526119
C         8.20328978431368    6.73201445656084    9.58602988939309
H         8.51892760254718    7.72593882305885    9.86326357172705
C         6.85946791923445    6.45948470176759    9.40038726697097
H         6.10062665809349    7.24191431583128    9.52194499746396
C         2.06125639219795   11.43424025587087    9.50728012356558
C         1.15983454098672   12.10685198219723    8.69685660535442
H         0.85319564955952   11.65920895351536    7.76314647665683
C         0.67450839383382   13.33864033683695    9.09798656452831
H        -0.02646808598643   13.87087560260144    8.47273592065889
C         1.08691218825987   13.88760585773334   10.30144170996965
H         0.70602564345980   14.84874980135311   10.61198458419290
C         1.98543698677231   13.20893942197043   11.11120371100263
H         2.30247424580648   13.64091056706794   12.04846459708468
C         2.47527412863646   11.97874564141989   10.71666671245262
H         3.17486928159164   11.43301606781452   11.33721745975442
C         4.51328907597086    9.97343958250326    9.14416202168408
C         5.21453351809590    9.46118349320205   10.22900727591371
H         4.69043206527702    8.91735649933642   11.01395220884306
C         6.57406523828468    9.71157145354724   10.33737201271868
H         7.11222302938311    9.34716729695616   11.20087711541890
C         7.22729981743765   10.43300440749358    9.35249873445259
H         8.28684976936902   10.62326872471017    9.43673254800205
C         6.52603516517371   10.92275803539593    8.26060753917544
H         7.04009088861288   11.48148609239071    7.49369099519203
C         5.16472294578060   10.70943891849440    8.16118762867933
H         4.59533674068029   11.09622370374036    7.32687983428124
C         2.11628722385772    8.30504398194391    5.09758388678287
C         2.21672465200644    7.18697421225633    4.27861151112460
H         2.50380888738626    6.23328560753438    4.70322491934980
C         1.95893088904259    7.30871360570008    2.92669842743463
H         2.03551666770495    6.44540543629400    2.28282535655791
C         1.60377258103173    8.54071829475721    2.39817476643936
H         1.40312542024549    8.63305488142600    1.34156719536631
C         1.50886417903823    9.65364423363365    3.21792491245872
H         1.23606319007015   10.61146879808945    2.80122252974782
C         1.76594293876475    9.53930537075706    4.57217316477015
H         1.70210843991854   10.39273044518044    5.23044133283257
C         1.26040635488694    6.89227481725066    7.44725496902775
C         1.54961468479166    5.52709781341676    7.44318391209708
H         2.52607168876839    5.17803462522211    7.11419506159574
C         0.54850663516825    4.61624407753816    7.74720184450062
H         0.76145681829031    3.55760359366538    7.71723250266821
C        -0.72529661933666    5.06355729648362    8.06154944119906
H        -1.50601385121525    4.34872544818908    8.27479203667233
C        -1.00397975682132    6.42221301022096    8.08558574172597
H        -1.99584877176678    6.76842584131701    8.33383298187256
C        -0.01758523418171    7.33867900395444    7.77094180361961
H        -0.22342694245735    8.40043001583713    7.76762206215545
N         2.19911768948147    9.58784511952281    7.50230222021523
P         3.61109603971581    6.00494260454332   11.45114939215834
P         4.69367925546871    4.86391638414896    8.82095408389937
P         2.69998063591479    9.82161235590187    9.02675179828269
P         2.47705223501504    8.12996630685491    6.85411231595140
S         2.07282734251267    8.44340598695484   10.34311107466383
S         4.34499644799546    7.44265186000041    7.08020058533233
Pd        3.58679125963583    6.79212903120862    9.32977849442425

