105
CSD_code = YILFUV | q = 0 | S = 0 | Stoichiometry = C44H50IrN2O4PS2Si | MND = 8
Ir        3.45422665717144    9.30705955025955    5.11559180294791
S         4.91386120008239    6.26166407112011    5.31300071764205
S         0.89104309852226    9.32206421270373    7.30913532996532
P         2.08230325797240    8.97555170323480    3.30265652910941
Si        2.62105401319684    7.10467783360947    6.80646309981565
O         5.82958748408105    6.79103976272058    4.32355442267823
O         5.49256184955266    5.96506890451276    6.60184934085857
O         1.50458342622004    9.56570291594906    8.59723091038697
O         0.34936601772549   10.49997308736354    6.66256909677243
N         3.62405250343854    7.18754680785231    5.39265070202143
N         1.82097806592693    8.54992597980116    6.28331082989641
C         3.48198728733405    7.19673828918431    8.50981559120576
C         1.46224110546469    5.57391579256283    6.78563717661252
C         4.24300001255024    4.73335007907025    4.66999754697243
C         3.85386271114026    4.65947565688462    3.34650098097390
C         3.24937705614594    3.50766948640635    2.87436266391856
C         3.03400638390047    2.42222430149928    3.71814557031919
C         3.44628304052208    2.50973962154928    5.04351750580883
C         4.04481563136150    3.66393996161662    5.52050464077600
C         2.39226422093559    1.17181076803221    3.19681639859951
C        -0.43769448433149    8.16442199867123    7.57410674528509
C        -0.43839654899438    7.38023656548406    8.71035517758519
C        -1.43107910338161    6.43379793119514    8.88470331311801
C        -2.42193584802229    6.26028399371256    7.92214665825313
C        -2.40717045861711    7.06557326085028    6.78968770843634
C        -1.41822021214704    8.01892908540002    6.61610381768310
C        -3.47880368019656    5.21490238874585    8.11543089633366
C         4.45491231290056   10.71908226508642    6.69278710809970
C         3.77724103711459   11.44215115899582    5.64693785878466
C         4.44403279309546   11.15072265923448    4.40920668092284
C         5.45461010984045   10.16726480674218    4.68347923218121
C         5.46375139629363    9.93115917158531    6.10482268327575
C         4.21490559297565   10.94788210149206    8.14393918089319
C         2.77526499785518   12.51911359579227    5.90658653868465
C         4.32514930840528   11.91348659115599    3.12417196269324
C         6.56450961740218    9.75520293349335    3.77006606905296
C         6.49728556403365    9.10880539482914    6.79434339917222
C         2.82784113346914    8.22511413401376    1.81464788206435
C         4.17366710465578    7.88449304672265    1.80977890943689
C         4.74084509568200    7.30823628080062    0.68379287387358
C         3.96693023466683    7.06611737185301   -0.43843051047099
C         2.61730067027439    7.38624977735322   -0.43025372777774
C         2.04696474077254    7.95924765623036    0.69126232749661
C         1.34741508155228   10.53058998742370    2.69665231362208
C         0.58492035005029   11.25540477694080    3.61253892391513
C         0.00681734284868   12.45515626350515    3.23745938501645
C         0.19350353448536   12.94938705357875    1.95535133334661
C         0.96545865113614   12.24103034128574    1.04979843508285
C         1.54302966168798   11.03655823111428    1.41647926186287
C         0.63276233931432    7.87601312249963    3.43166756044836
C         0.90167146587161    6.52995696641907    3.66106538949961
C        -0.12571181073288    5.60607511919317    3.68431313456314
C        -1.43324233986021    6.01676087574136    3.47627749429242
C        -1.70558599049051    7.35446714079505    3.24822735051358
C        -0.67898895818705    8.28507672175016    3.22546466605285
H         3.17119557752563    6.37609872650039    9.15147330104081
H         3.22899169796296    8.12601632834343    9.01252465537997
H         4.55969964031365    7.12677986156923    8.39903269248726
H         0.49947872950228    5.79973561416213    6.33938107565905
H         1.27878812763461    5.22078467875567    7.79533998734375
H         1.90717042425395    4.75621820586030    6.22872548944287
H         4.03844474877966    5.50319628219745    2.70080757702806
H         2.93967043971241    3.44975408837469    1.84064687727841
H         3.29261305421977    1.67013861022609    5.70627478862147
H         4.37223420918814    3.75670065012057    6.54407184196672
H         3.14293211081413    0.53981032697666    2.72187684674382
H         1.63473068798092    1.40714752067377    2.45265558394331
H         1.93457161439769    0.60377671155826    4.00287446378978
H         0.33753043523059    7.53630381147218    9.44222742395966
H        -1.44223020761592    5.81885927843641    9.77319525604298
H        -3.17534621816739    6.94679750438038    6.03927837105726
H        -1.39416419534889    8.65965618633709    5.75010589367077
H        -3.03341842252739    4.22112210951241    8.08218234531543
H        -4.23821310015502    5.27937577655921    7.34081338570174
H        -3.95750337614857    5.33143192203585    9.08606050955364
H         4.90668408316069   10.37373817125254    8.75474341666290
H         4.34491962470291   12.00753021935658    8.37061557784918
H         3.19767967087551   10.67246034932665    8.42133299708899
H         3.21885506920241   13.29209335714906    6.53590922478165
H         2.43479785658625   12.97538510414816    4.98093551236631
H         1.91105433450089   12.11099385423217    6.42964033826766
H         5.14740799136613   12.62838315704326    3.05992201109472
H         4.38280314963513   11.25087919775318    2.26280957715410
H         3.38940366547601   12.46247671107297    3.07392690409124
H         7.47986936080581   10.27857621719741    4.05299168351526
H         6.74377294887472    8.68540598114758    3.85931373913656
H         6.33573616907608    9.99553970653314    2.73515875553795
H         6.50750805471091    8.09342571414658    6.40113526026706
H         7.48453478152618    9.54263009474634    6.62459561548151
H         6.31674226276794    9.05744554192223    7.86469290544456
H         4.75834369657659    8.03005291208501    2.70528754706972
H         5.78627430889662    7.03920821831326    0.69343563288356
H         4.40884265137650    6.61861150199988   -1.31655031474157
H         2.00894232874749    7.18494447478229   -1.30005753260959
H         0.99255007031449    8.19900099657739    0.70271214507823
H         0.46517777427638   10.88085608681686    4.62127697001049
H        -0.58387572359327   13.00780787445662    3.95246869227089
H        -0.25456153819289   13.88820964008073    1.66458838716447
H         1.12242324334639   12.62867446297050    0.05377653289286
H         2.14959571291530   10.49617215222765    0.70493622019769
H         1.92268501281206    6.22697635372725    3.83535330490902
H         0.09527342198971    4.56372637693309    3.86146458595627
H        -2.23729508418741    5.29553078545618    3.48959922198856
H        -2.72302568896638    7.67881502175798    3.08284341451871
H        -0.90391091186464    9.32555601503310    3.04231441651833

