96
CSD_code = YILGAC | q = 0 | S = 0 | Stoichiometry = C32H50IrN2O7PS2Si | MND = 8
Ir        4.65948107863049    2.59697356514473   14.19018410055535
S         7.68805545224490    1.48301205580423   13.03348628450059
S         3.38604278447391    4.30696205452607   11.45601878496464
P         4.07072562983635    0.50778504708585   13.57626203981090
Si        5.84924059336108    3.09210569207772   11.59855842886022
O         8.21071009494061    1.61834460565919   14.37877977975534
O         8.48782377508102    2.03776164661445   11.96810317942126
O         2.82916065693796    5.24517402393519   12.41153768380369
O         4.14551486253420    4.86602335587420   10.36575981953914
O         4.60279441594559   -0.52385727456899   14.67544874925088
O         4.50815369226432   -0.08699527394319   12.15234921725731
O         2.48787800187062    0.12170661153318   13.64137317716681
N         6.21724581954145    2.03186444716850   12.91563550548888
N         4.19664470444860    3.13634954567742   12.15213069870719
C         6.84332018472742    4.71706000760520   11.73866946573359
C         6.02944283439296    2.33011221382576    9.85919678820763
C         7.53705427416383   -0.27248668232497   12.72538357849243
C         7.43074668353494   -0.72065776028320   11.42352374341055
C         7.27290227319686   -2.07160260806172   11.17351212390605
C         7.22649288318784   -2.98648755682455   12.22263926071862
C         7.34634814672665   -2.51828069818725   13.52557874064878
C         7.49722280522955   -1.16391099035539   13.77754888165014
C         7.07099299765940   -4.45196271081214   11.93991739690537
C         1.98390108816034    3.45872874998492   10.72226013257862
C         0.70362454725006    3.64059924096769   11.20827032230527
C        -0.35327895536673    2.94981723115426   10.64018468401343
C        -0.13966527740659    2.07453384569783    9.58102720896392
C         1.15495948121247    1.91069358667792    9.09773453476369
C         2.21321560955620    2.59954278069423    9.66598735497735
C        -1.28200847450246    1.31052829060275    8.98180163151162
C         5.80782645156515    3.84963874653011   15.74820659539232
C         5.31588619772637    2.60736448797373   16.27460991711161
C         3.87441456135825    2.64803876914230   16.24249445722415
C         3.49434193479820    3.85338336718849   15.57713207902954
C         4.70222152876977    4.59781921353583   15.28818912732551
C         7.24090576174357    4.25452345073067   15.77939787269977
C         6.16510430746274    1.58969872768525   16.96204829925310
C         2.97663612736339    1.67574023095876   16.94739759390637
C         2.12132585551788    4.42382907002534   15.41382416825320
C         4.69689520526143    6.00306551202049   14.78808245415151
C         4.22540815982387   -1.90113230368238   14.78358636894020
C         4.62415497461601   -2.38722988276704   16.16747678032608
C         3.88737045312078   -1.20496370225554   11.51082263836554
C         3.56114095135616   -0.85323731113555   10.06828616827773
C         1.52883283896243    1.02250407504420   13.09438152557532
C         0.24689012280850    0.93704302867527   13.90529152000543
H         6.70774431460967    5.19545560794836   12.70527391725570
H         6.52425856786005    5.41670835155335   10.97334908137222
H         7.90068469771700    4.50384295580133   11.61395354679278
H         7.08430211019396    2.18356781765576    9.65216764836854
H         5.63103128718445    3.01824328244855    9.12059244595884
H         5.51969906943818    1.37575204148694    9.76711774375959
H         7.48830969104844    0.00329601300208   10.62856717544603
H         7.19203237202644   -2.42958741270953   10.15638846768304
H         7.33117071419315   -3.22259500321245   14.34608273469783
H         7.60102894822422   -0.78093410272920   14.77978129425480
H         6.30687719465212   -4.62273808249213   11.18353458105603
H         6.80383614542552   -4.99841501068201   12.84109389045297
H         8.00809783825309   -4.85910469517316   11.56091569007922
H         0.55453064334460    4.33638373319161   12.01877911498474
H        -1.35728890895729    3.09808474321392   11.01199233479080
H         1.32877744093707    1.24605558593903    8.26282018495315
H         3.22148104990043    2.50207068041301    9.29898652646016
H        -1.44503579455269    0.38613198300967    9.53707612691008
H        -1.07504874072613    1.05049924189340    7.94686634281396
H        -2.19980022615979    1.89185765017681    9.02297211481107
H         7.85552223419355    3.47663957144447   15.32678348902320
H         7.56294211219733    4.38031427749400   16.81440342670800
H         7.40677205423858    5.18722629914876   15.24780160258943
H         5.64341593863210    0.63980461496136   17.03639266520852
H         6.42905409303281    1.93021553206851   17.96509785472134
H         7.08159256418088    1.44729347740340   16.39220176659875
H         1.93182704847098    1.93111975699887   16.79354255267855
H         3.18321922572890    1.70492114591314   18.01794590722500
H         3.14478161890466    0.66041072419612   16.59456375726389
H         2.04727403077128    4.90354560834725   14.43916452293905
H         1.93645663290121    5.17692814802168   16.18178025835010
H         1.35616122646962    3.65531372255922   15.48908340870241
H         5.70261864278484    6.36013814954254   14.58423072747284
H         4.24406081881385    6.65448726764068   15.53784135155443
H         4.10298915674318    6.07363891465191   13.87776765654367
H         3.14640127961658   -1.99720741379486   14.63598299989490
H         4.75021826211299   -2.47738846217664   14.01557151227062
H         5.68760863139929   -2.22669631127875   16.31741288008961
H         4.40322935793246   -3.44680118029597   16.26479090110430
H         4.07899590330259   -1.84109534097909   16.93237106657798
H         4.59620161721753   -2.03914704688753   11.54447930250551
H         2.97583690907547   -1.49025721819312   12.04575706234310
H         2.93355350905892    0.03314237810572   10.03565933004288
H         3.04117947782604   -1.68393126451478    9.59656893158707
H         4.47698998749696   -0.65227152829468    9.52076273987977
H         1.93924248608709    2.03705952677334   13.10953228459082
H         1.33676793401877    0.74817606666707   12.05195367301255
H        -0.15765862727883   -0.07140357629036   13.86994819792972
H        -0.48315973416584    1.62841280456961   13.49570859139515
H         0.44301909753122    1.19261345284610   14.94209775258505

