77
CSD_code = YILLUB | q = 0 | S = 0 | Stoichiometry = C38H26F8P2PdS2 | MND = 4
Pd        8.21916455419230    0.30011190193665    3.77380537857482
S         9.76328644450330    1.90082310201567    4.60993335376712
P         6.82369240370370   -1.35762490807001    3.12162139894363
C         9.71092642524411    3.10156380246901    3.36782187867894
C         9.54422151924599    2.76167368497119    2.02025890435888
F         9.39502524051496    1.43988789049832    1.71574560512281
C         9.50284576246998    3.71653120535632    1.02338822618023
F         9.34852767894568    3.34052605115082   -0.25545985789226
C         9.64051358849878    5.06026020449660    1.32862790601490
H         9.60239887901392    5.80976453034962    0.55763422148400
C         9.80936597660255    5.41750800376117    2.65617963195323
F         9.94189255693954    6.71445585445246    2.96987639256844
C         9.84298825606020    4.46502821534827    3.66124590687259
F         9.98257360283662    4.85096837005483    4.94230778704776
C         5.61473531577113   -1.69588121742679    4.43297199146879
C         4.39281145456304   -2.31643971386436    4.19535982301914
H         4.10647389326370   -2.57715592350164    3.18593794024483
C         3.54519489448244   -2.58732947891985    5.25458000188072
H         2.59294056325056   -3.06230929401566    5.06993378749654
C         3.91226628791893   -2.24988370366741    6.54784235643589
H         3.24213638380267   -2.45801332430070    7.36852033927032
C         5.13482900249352   -1.64358318905648    6.78880796758274
H         5.42111088434490   -1.37860475596094    7.79557937801531
C         5.98667138594828   -1.36716005185791    5.73490791529487
H         6.94565884555151   -0.88325327665729    5.91505952395686
C         5.88520012581519   -1.34586576501488    1.57761457818898
C         6.28625624200809   -2.04207782475395    0.44181986720601
H         7.15973669661365   -2.67727514576645    0.46686761738511
C         5.56109843108073   -1.92167941520825   -0.73045580919452
H         5.87117871292468   -2.46765359828594   -1.60929327134530
C         4.44826360815606   -1.09896785796605   -0.78269464440398
H         3.89088613755623   -1.00423296684148   -1.70245660938235
C         4.05667731540887   -0.38868487543190    0.34149666305373
H         3.19719739528109    0.26305908632752    0.29908335547659
C         4.77259759784999   -0.50635488506970    1.51653562073063
H         4.48398058592287    0.05459317804802    2.39517324744826
C         7.77524134740240   -2.95425227652432    3.15388047448460
H         7.07597183990882   -3.79669591727439    3.15795795010459
H         8.39787669593309   -3.01486512787971    2.25668469603944
S         6.67517337153165    1.90085752620274    2.93790606987095
P         9.61463004672405   -1.35762997472530    4.42628829324983
C         6.72739217908445    3.10156068679763    4.18004768336307
C         6.89410021693351    2.76166591188265    5.52761184394179
F         7.04337384441841    1.43988733131665    5.83212122963790
C         6.93539736820045    3.71651626747035    6.52448715298411
F         7.08972941206886    3.34051744303425    7.80333769228924
C         6.79763117143378    5.06024424277030    6.21926920069289
H         6.83566517434841    5.80971635990862    6.99029916679917
C         6.62877898821780    5.41749483332139    4.89172147365064
F         6.49614401187469    6.71442506812643    4.57800869772945
C         6.59526266507737    4.46501856667589    3.88664536836420
F         6.45570367540418    4.85097572363806    2.60558532120963
C        10.82354484449472   -1.69596090467982    3.11491996254005
C        12.04544445406102   -2.31656917919279    3.35252970972216
H        12.33177009034499   -2.57729136086964    4.36195273443717
C        12.89306703934732   -2.58745050892282    2.29331346535897
H        13.84531236546429   -3.06244876926658    2.47795753240384
C        12.52602169306867   -2.24994984211155    1.00005761403401
H        13.19614960857623   -2.45808683519701    0.17938166954669
C        11.30347697296294   -1.64361496834604    0.75909109995331
H        11.01720251433036   -1.37863685244266   -0.24768154511076
C        10.45162849340253   -1.36719718705636    1.81298807179363
H         9.49264716146424   -0.88327613607956    1.63283588368898
C        10.55315229893255   -1.34585109392209    5.97027379665468
C        10.15211069470023   -2.04203181222341    7.10609524112838
H         9.27859759149237   -2.67718809433132    7.08109091653689
C        10.87734958992527   -1.92168095874830    8.27832680153665
H        10.56726561417810   -2.46759794557000    9.15719768358775
C        11.99024885951733   -1.09904890977810    8.33049002111895
H        12.54764562508930   -1.00429486089241    9.25023559719434
C        12.38180223609386   -0.38877363563955    7.20627996446174
H        13.24130093202507    0.26294838348961    7.24865579252990
C        11.66579757948507   -0.50639179755829    6.03128744843961
H        11.95440843452280    0.05451412724101    5.15261965735440
C         8.66301728631304   -2.95422119467881    4.39410203929015
H         9.36226021119007   -3.79668634288782    4.39006545471000
H         8.04038115167243   -3.01477389467717    5.29130269917655

