83
CSD_code = YILMEM | q = 0 | S = 0 | Stoichiometry = C40H32F6P2PtS2 | MND = 4
Pt        4.69946964540646   11.62642063691947    2.13399693981781
P         3.11285321071997   11.26417507780328    3.73312134121484
P         3.61897290800375   10.06802825610866    0.86467005572173
S         5.73713242685563   13.31524326553169    3.46061426100405
S         6.37609747027313   11.89375154519620    0.45792891486866
C         7.28707811011999   12.53964090426379    3.57255542280257
C         7.37093152400019   11.14392114511010    3.57758782450472
H         6.44441014430002   10.56758351773054    3.53706371199228
C         8.59054449618258   10.50847793615914    3.64121498408090
H         8.63171392341297    9.42875133353209    3.62828418453310
C         9.76090220010464   11.24879819482695    3.72383788852596
H        10.71810554018035   10.75360910380719    3.76708367290642
C         9.69734094047645   12.62882247216335    3.74835145594565
H        10.60135423182158   13.21417280320829    3.81134894149662
C         8.47279877732139   13.27679440365518    3.67731902443075
C         8.41942542067880   14.77407761132568    3.69639486612969
F         7.87072370582003   15.31294596293276    2.59350322257103
F         9.63552116557770   15.33762601147871    3.80736636265741
F         7.70962374277808   15.25851936528661    4.73878333019676
C         6.08067586021024   13.57931904041779    0.16340349555650
C         4.79384106890546   14.10293874943551    0.32151950810476
H         3.98709521120314   13.42400808483328    0.60567807471978
C         4.54396439980684   15.44104561506562    0.11589992639455
H         3.54436341794277   15.82585282555698    0.25870532812728
C         5.56806328308975   16.29156639165278   -0.27448257821906
H         5.37641970718238   17.34159780847724   -0.42943967395817
C         6.84092865845229   15.78816870995612   -0.46303068342611
H         7.64489021254540   16.44076913461562   -0.76572726553989
C         7.10230940805236   14.44239143516487   -0.25140359727298
C         8.48883606747925   13.91153337163674   -0.45321874174488
F         9.35570335965183   14.85757520489554   -0.85621778233689
F         9.03131055969349   13.37168616767184    0.65215170340732
F         8.54759336004363   12.95186325155881   -1.40241705386111
C         3.67448377481673   10.34489845169419    5.19102023066109
C         4.54756838777865   11.03913200642121    6.02918430111688
H         4.80789677904960   12.06126499027505    5.78455008328806
C         5.07650166332644   10.42233569391609    7.14520662926432
H         5.75197108660627   10.96394385192609    7.78992742043397
C         4.74343952901593    9.10680768999697    7.43128548687990
H         5.15703134704771    8.62158909343467    8.30265575240734
C         3.88452564690436    8.41171902201434    6.59687154335224
H         3.62863138755148    7.38566370640977    6.81801344196042
C         3.35189442525870    9.02307246808445    5.47450938859405
H         2.68578893246416    8.46574502029865    4.83187040889717
C         2.19936631654898   12.65669692059953    4.44278868404102
C         2.30744032940007   13.89652335323877    3.82406398122887
H         2.95803926404808   14.00348697444118    2.96488400889361
C         1.61287266484894   14.98042292906014    4.32908807658826
H         1.70398767536147   15.94679106582860    3.85685689687778
C         0.81090091978915   14.82543532187563    5.44805284451751
H         0.27233112293000   15.67225626900769    5.84671100840895
C         0.70420735018580   13.58902526806515    6.06678456463632
H         0.08320222195660   13.47527282098727    6.94318291784315
C         1.39793946019064   12.50181212867282    5.56937282759434
H         1.33130563933857   11.53777199263553    6.05536015503731
C         1.77046758024426   10.25414094308866    2.94222463375288
H         1.15146265906579    9.76929958563089    3.70326340490659
H         1.14382627215356   10.97744109548076    2.40873650607865
C         2.36736246647286    9.24562115043928    1.96310045747597
H         1.59623504768393    8.74855937367899    1.36674411302756
H         2.92446569978654    8.47366495285848    2.50538446062989
C         2.71697448321054   10.71716165139289   -0.56720982635402
C         1.33539561517819   10.84874126612259   -0.64401387116503
H         0.70166269071439   10.51069391905640    0.16311892724065
C         0.76077120135951   11.41472388738932   -1.76939844493223
H        -0.31360089847320   11.51140580365586   -1.82912304395462
C         1.55545423427173   11.85969577021367   -2.81229895439331
H         1.09973645435329   12.30388934563832   -3.68453450969154
C         2.93494662055581   11.74058528175688   -2.73404101316060
H         3.55722277230141   12.09402259851930   -3.54218645502184
C         3.51485536110871   11.17450126952628   -1.61647198832745
H         4.59084021081983   11.08740469541719   -1.53425658861634
C         4.53678356998511    8.66376856043444    0.18487520214746
C         3.97321773879476    7.81584676483030   -0.76317615145202
H         2.97375694884651    8.00603431913179   -1.13049662436324
C         4.70472328293477    6.74361923152750   -1.23861098994181
H         4.27351509032918    6.08382327251500   -1.97711044746912
C         5.99229930709116    6.51877504317342   -0.77537623022992
H         6.56064194395573    5.68350668655973   -1.15669718854666
C         6.55502011074810    7.36631365429169    0.16498433545095
H         7.56199538412540    7.19626887388898    0.51468060322495
C         5.82804946035760    8.43919891104665    0.64730719594044
H         6.25909860892235    9.12654971553945    1.36479476987204

