41
CSD_code = YILNUF | q = 0 | S = 0 | Stoichiometry = C17H15ClN3O4Rh | MND = 6
Rh        6.30281409304285    6.87431478812256    1.94683161833245
Cl        8.07659548748835    5.59801273045164    1.25183290067811
O         6.04151882086479    5.87856402841146    3.65420478050209
O         4.72032214400432    7.92949715591676    2.68226982826120
C         5.06970801808516    6.29963479438367    4.40827813633900
C         4.28929871618529    7.51689345039853    3.83573483516284
O         4.78821442656787    5.79143710183633    5.47170184205743
O         3.36027182088216    8.03091881600553    4.42084167848843
N         4.98993543244956    5.57724646861402    1.14945316904152
C         5.15164920784508    4.27856256480524    1.41305077902160
H         6.08821116402468    3.98387599859818    1.86882576138016
C         4.17716986594304    3.33772241752215    1.12993477634710
H         4.35370304123526    2.30166242482758    1.36969200824960
C         2.98577752004895    3.74934493983270    0.55708111220155
H         2.20069322552458    3.04205904810836    0.33811839893672
C         2.82465697451577    5.09761638636754    0.27814733411202
H         1.91526311980865    5.47162041465741   -0.16452651656810
C         3.84566304688065    5.97572968634581    0.59030158863805
H         3.73182645779559    7.03472137265079    0.40022268776363
N         6.43068768012077    8.00945529437347    0.22082925942078
C         7.31397462889822    7.81436035172034   -0.75971714629728
H         8.01385992587099    6.99992722754232   -0.62133671532302
C         7.35147830630163    8.59915830096373   -1.89973265973732
H         8.08829029267527    8.39444365392320   -2.65975952744504
C         6.44150582949340    9.63292506087528   -2.04274712266941
H         6.44555368002637   10.26187269276893   -2.91980673590221
C         5.52334636786523    9.83607702377287   -1.02422217364684
H         4.79107995799001   10.62582742586484   -1.08188727517059
C         5.55089365239583    9.00811614495517    0.08307329474109
H         4.84198829716145    9.14605070290296    0.89102874480860
N         7.51892912515394    8.08326586960471    2.99800454630221
C         8.41960399202367    7.51795761913452    3.80520186947085
H         8.57825453373533    6.45304555386829    3.69330812712252
C         9.12436953324518    8.24093604807788    4.75153778574547
H         9.83555407536331    7.73542632464321    5.38466292213516
C         8.88996346113931    9.59973106159163    4.87688060987597
H         9.41233555503199   10.18809242073911    5.61550642341679
C         7.95933058765444   10.18436487616323    4.03201000032674
H         7.73645786894175   11.23784777635944    4.09011768573004
C         7.29670821712561    9.39414566344231    3.11138033987603
H         6.55194184860015    9.82693831886117    2.45677102827654

