58
CSD_code = YILQIW | q = 1 | S = 0 | Stoichiometry = C26H25ClN3O2Ru(1+) | MND = 9
Ru       10.08517062056022    3.27729799239894    3.44029424080742
Cl       11.23836234414634    1.29319382688072    3.74577156238554
O        11.16025024663151    6.12568511765064   10.35002773283784
O        13.02010512790987    5.25597825717593    9.70623993821831
N        11.83369231446867    5.45650244421266    9.60423032909121
N         9.26728811545819    3.13314078250141    5.19661594566723
N         8.49559261696532    2.10404419005085    3.05444093116315
C        13.65073492819945    3.69367002890096    2.80376371225697
H        14.21618999279119    4.15606476839377    3.60843514055991
H        14.18013861158691    3.83291418344597    1.86314190191239
H        13.59702899217272    2.61933037066758    2.99696157586617
C        12.27076003055939    4.25162134265841    2.72016444660563
C        11.71112996455923    4.99934418612617    3.76581811145093
H        12.31105991051892    5.23835417637969    4.63584835082794
C        10.40647476760606    5.53270988287657    3.65585842568026
H        10.03878361381256    6.18454345649144    4.44373250114612
C         9.64297761074416    5.37918522034105    2.47721569767402
C        10.21723526328548    4.62458072980854    1.42399673565194
H         9.68997615614781    4.54104431830437    0.48082336489211
C        11.49032765366505    4.06234723460117    1.54649798570620
H        11.94040273589264    3.55562704996594    0.69968238494176
C         8.32529785189344    6.09858869167159    2.30547017860792
H         8.14107939928936    6.68881141436975    3.21042560261698
C         7.17500693610284    5.10088936435751    2.14595172499735
H         7.31101403472572    4.48183983028988    1.26125761866690
H         6.23414382717232    5.63475289988741    2.04478920235537
H         7.10916180761688    4.45431284835053    3.02287941931186
C         8.39021076697265    7.05810478811833    1.11350875164086
H         9.23972669655487    7.73026994342114    1.20725542972346
H         7.48422098878344    7.65626951906400    1.07709470454541
H         8.47617274917946    6.51788069677577    0.17441503339765
C        11.15612656587751    4.84262335555613    8.47298134185883
C        11.86836263368376    3.99887490401262    7.62930626747652
H        12.90740087798799    3.79588577277867    7.84108532786940
C        11.23195198229212    3.43530579526929    6.54271402044920
H        11.75140834779724    2.75180058917218    5.88379571682073
C         9.88069981163740    3.70941002893554    6.31105223982780
C         9.17036246165380    4.54496301048969    7.17713832632660
H         8.12900327689047    4.75646974787889    6.98542329345995
C         9.81186075110744    5.11630508680226    8.25748245048658
H         9.29061786228802    5.77132136096150    8.93921505386874
C         8.12584515686939    2.51510475670791    5.29953015974216
H         7.60622981913975    2.40578737639305    6.24377657493433
C         7.65421605640101    1.92688790661438    4.08973571688256
C         6.44075260712123    1.21566214717910    3.96705622892368
H         5.80463120396736    1.12065159810298    4.83162253195128
C         6.10431446792634    0.68020370888083    2.75942514855850
H         5.17168467069794    0.15649072221500    2.61987274195485
C         7.01174933240221    0.77702643788227    1.67963888976757
C         6.76465822063989    0.17784136890319    0.43094781993282
H         5.82726174834959   -0.33607740548910    0.28397103123443
C         7.70254166891264    0.22284987945216   -0.56603615983304
H         7.50897741754717   -0.24605006577007   -1.51775236715428
C         8.93699685257375    0.84919402671517   -0.34177817360091
H         9.68893991346374    0.83006166288236   -1.11535255919400
C         9.19868069001526    1.46802635742992    0.85162495738954
H        10.16888894058918    1.90228969305728    1.04817684139277
C         8.23851998619897    1.47669062084407    1.88113789746033

