73
CSD_code = YILQUI | q = 0 | S = 0 | Stoichiometry = C26H42NScSi3 | MND = 8
Sc        6.04820796575277    9.04242795835334    7.01335188959084
Si        2.52816005677479    8.83769052323142    7.12311600225683
Si        7.88654044590659    5.94063370253321    6.83333937620311
Si        7.09423256484171    9.11505539466825   10.92361188017817
N         7.17918204354326    9.52938377347558    4.91186683732285
C         6.21748824785271    6.81621776855498    6.92784657013822
H         5.65305051136329    6.37156098946498    7.76220363197855
H         5.65130054287150    6.53196439968564    6.02553315993696
C         7.01951246667330    9.85561304094012    9.19876071568502
C         2.16932877372684    7.11835032305183    6.35610014476942
H         1.89899059967221    7.20108700559603    5.30821312620326
H         1.35023871454287    6.62044452804345    6.86491630667854
H         3.04055480744580    6.47400669949069    6.42277701312320
C         8.08437738063612    9.77831146194523    8.25177001695939
H         8.97787194446975    9.17997566966752    8.38961257184241
C         0.90326164601064    9.85507057369822    7.04145211283121
H         1.05009019825785   10.84983722775668    7.45114587691145
H         0.10441456985411    9.38250138334458    7.60494933406818
H         0.55908558228963    9.97046921373541    6.01819106517475
C         6.16894453457120   10.91609142726240    8.74115725391015
C         6.72408861949269   11.45576136810060    7.51896148470292
C         6.12169279672287   12.56823593806886    6.90357768234429
H         6.54520916953291   12.98924902889547    5.99924072571547
C         5.01113710760642   13.13172121903754    7.48154340397497
H         4.54508952727330   13.99374802247443    7.02553345215307
C         8.25552472506151   10.31283725930892    4.79982620127163
C         9.09276478304485    6.89981396438085    5.68426009256884
H         8.70256512346967    6.96795216596442    4.67217460415998
H        10.05837183968386    6.40672309981367    5.62650827084148
H         9.26124260017396    7.91225780750293    6.04342829067258
C         7.26838881733479    9.11590324205325    2.55566407955220
H         6.84596993183165    8.61939319275401    1.69700012621139
C         5.02796497712966   11.52405464032135    9.29332069816910
H         4.61440040740484   11.15299759363240   10.21915491367918
C         8.87954946424362   10.53802499105327    3.57324392255927
H         9.74699960506511   11.17912304172732    3.52750368987989
C         8.38309864187655    9.93546890478032    2.43549910766979
H         8.85168784608500   10.09536978095819    1.47590289416456
C         4.46943276495939   12.61152885637916    8.66797316470691
H         3.59948071896207   13.08888142556789    9.09599664334259
C         6.70854525675633    8.94614442137420    3.80664508500414
H         5.84147219844492    8.31019318956716    3.94408048446497
C         8.80627940769662   10.95170243936422    6.05094464860901
H         8.93996247081783   12.02235896850174    5.86124020527583
H         9.80073654130075   10.53103719973704    6.23869193296483
C         6.36231827506952   10.29134852112776   12.24090093086400
H         6.74208483540580   10.04463306752039   13.22779127386261
H         5.28049953868930   10.21979904869272   12.28589475842181
H         6.61773292015924   11.32666060866323   12.03907997142996
C         4.02053543530079    9.63225459024596    6.28549673580394
H         3.97340765691800   10.72160849353544    6.45456985379658
H         3.93017532322923    9.49462198078193    5.19647623301458
C         7.92152405252674   10.73664061648314    7.24131068453156
C         8.93038719194900    8.84332970368763   11.39141604115633
H         9.40040126504823    8.07995591104080   10.78011930076603
H         9.01907248427571    8.52518470149217   12.42561951180678
H         9.50640285637560    9.75671190340949   11.27871820025978
C         2.96175840065332    8.58561559958089    8.97564828882779
H         4.01721541858979    8.31805196428405    9.08066792719610
H         2.36843214611144    7.79935704338698    9.43144883352819
H         2.79070526142312    9.49370373149651    9.54415940423326
C         7.79897216225275    4.15785908176045    6.12584427268622
H         7.14297236529205    3.53169158833889    6.72267604959731
H         8.77488215543865    3.68192036938577    6.10486072061982
H         7.41316423061553    4.15752483866542    5.11056007302145
C         8.70933519154618    5.80851836866805    8.55784186761049
H         8.69143324456748    6.76058991400904    9.07893855549156
H         9.74439216349214    5.48938915110081    8.48046212401840
H         8.19334173097365    5.08644590553564    9.18257034166098
C         6.17739537589838    7.43708142579260   11.04416847529125
H         6.33902294910176    6.82755525693107   10.15855432894453
H         5.10646140053452    7.57728566164750   11.15698393945937
H         6.52078502954042    6.86808612689548   11.90299061169145

