33
CSD_code = YILXOH | q = 0 | S = 0 | Stoichiometry = C11H16Cl2N2OZn | MND = 4
Zn        3.19711441864721    3.63763650447591    3.84317334149114
Cl        1.75676678925820    3.88494226202439    2.20902336549222
Cl        3.36913479789124    3.58531928787810    6.04237465636833
O         4.45503608629398    2.18789328547277    3.10558713000611
N         4.55750489889116    5.31007401969121    3.47191799614434
N         6.47425269564194    3.15208370707139    2.91781725046266
H         7.26332886992085    3.34360628185672    2.32077284949139
C         4.00579472274040    6.48343048288936    3.18770135806829
H         2.99495453912027    6.44571710577031    2.80592570266008
C         4.67328892721367    7.68426081950391    3.35798441855875
H         4.18413502757699    8.61501893041106    3.12082221647341
C         5.96914452813052    7.65708036660269    3.84746222458591
H         6.51958614722337    8.57191549691609    4.00784320955708
C         6.55150733209302    6.42982007624121    4.12028785517999
H         7.56233444266840    6.36783833679559    4.49284246687639
C         5.81240797890968    5.27147156281278    3.92061839697489
C         6.39020000341578    3.90133997159659    4.15951139698361
H         7.38657789285756    3.97214080006775    4.59816862372900
H         5.72836011821904    3.36028320016653    4.84495222521787
C         5.47752519827638    2.38822281627550    2.45239678783467
C         5.63062057599946    1.80138437613833    1.05243350958823
C         7.08602481225394    1.63913923440821    0.60801707274224
H         7.66365476993843    1.08939594510165    1.34833419706376
H         7.56619797944580    2.59740241175132    0.41471034367969
H         7.10944614958435    1.07530489851803   -0.32181260474897
C         4.91953392981685    0.44650908667289    1.01354394291678
H         5.44922039416482   -0.27960114295251    1.62600779188352
H         4.87264417321286    0.07730670869996   -0.00750380615138
H         3.90832412555701    0.54757797868226    1.39677258363560
C         4.89922459468704    2.79534647446309    0.13491300089369
H         3.86679113885314    2.91603015330722    0.45516145262439
H         4.90590175996589    2.42619399791461   -0.88764463241819
H         5.38066018153178    3.77201456277582    0.15528367613549

