31
CSD_code = YILXUN | q = 0 | S = 0 | Stoichiometry = C10H14Cl2N2OSZn | MND = 4
Zn        5.68905481376986    5.28871173154209    5.76711687380568
Cl        3.81143313246957    6.17909784474242    5.03367508797119
Cl        6.44946151059048    3.33313266827150    6.40445397595097
S        10.40573706760068    6.26235212730880    5.87617888344111
O         7.19496904353064    6.13878004252674    4.61739788566456
N         6.13050433048224    6.55122645079322    7.47649900954919
N         7.71476881279314    8.15951317527321    5.49014195712738
C         6.04098606343872    6.02554571475271    8.69176176211863
H         6.04309001204364    4.94519336345277    8.73607759188791
C         5.95676902213205    6.80048186832722    9.83602437903479
H         5.88470786540642    6.33162906674302   10.80384388501474
C         5.95634973850189    8.17924946301613    9.70203613180335
H         5.87748146475437    8.81960675467331   10.56763183497272
C         6.06766051279806    8.72445151829061    8.43309123180173
H         6.07362394599370    9.79454799555274    8.29256615582862
C         6.15757868074045    7.87682963442006    7.33655060446326
C         6.34817215849609    8.39749269682346    5.93740837600244
H         5.65460109443674    7.87686369568771    5.26886445111298
H         6.14860353366339    9.46889587582606    5.88948684852916
C         8.70148876289621    9.15695849258534    5.84511817171203
H         9.60734268109913    8.68765026875182    6.22878455591100
H         8.29361397059218    9.79451840400968    6.62553589705068
H         8.95573381189250    9.77942423467804    4.98352840925329
C         9.86423481532325    4.54028436712038    5.97229624957448
H        10.32683371011455    4.12267622126202    6.86059440137151
H        10.20756424029845    4.00906367487651    5.08897872898138
H         8.78253295109531    4.48656338943276    6.06066479765291
C         8.02184678947256    7.02775034955285    4.84673216004911
C         9.44834594158232    6.81976571205671    4.41392336997565
H         9.92605538574299    7.72155358619101    4.04047988649571
H         9.48775413624382    6.02748961145721    3.66805644589311

