45
CSD_code = YILYUN | q = 0 | S = 0 | Stoichiometry = C20H16Cl2N4RuS2 | MND = 6
Ru       -0.00021574531215    0.81221671513493    3.75547987934339
S         2.00258372474207    3.41087291211816    4.46112749977979
Cl       -0.85625903464629   -0.79945804406822    5.27123088993313
C         2.58745478935190    1.77976525908043    4.88030702487746
N         1.80494759234883    0.72705740074174    4.63642468628485
C         2.27450707424938   -0.48070839334218    4.97276674358720
C         3.50561251337272   -0.66556115151865    5.57191968782656
C         4.30574884554562    0.43665466977722    5.83712365283338
C         3.83493605680199    1.68757158718936    5.47599291780458
C         1.51307401548943    3.17427265872518    2.76531308618020
N         0.70347742019664    2.16041700100415    2.44509015178292
C         0.39454337102380    2.02423589892107    1.14565616016186
C         0.82495787221272    2.89593665998499    0.16873543301930
C         1.62848190688500    3.97264634376033    0.52125218894041
C         1.98824595602948    4.10007993233349    1.85095750666587
H         1.62367343831396   -1.31963005825123    4.75974528486552
H         3.82722575146067   -1.66251147755235    5.82551763180100
H         5.27173596411717    0.32855383281983    6.30486460340339
H         4.40793673133886    2.58523469889518    5.64342802624990
H        -0.21654155401745    1.16909260702522    0.88782638536166
H         0.53215046930341    2.73043591530438   -0.85530818811706
H         1.97437879945216    4.68040595325973   -0.21471291337413
H         2.62753799753256    4.89641663250652    2.19617654097790
Cl        0.85906888753871   -0.79940296325832    2.24197862989635
N        -1.80545716864655    0.72701992395458    2.87513093654223
N        -0.70312916375941    2.16057229649583    5.06626132330518
C        -2.58780216661628    1.77977812862886    2.63120690166469
C        -2.27492327879553   -0.48071455126628    2.53866500707626
C        -1.51288360064049    3.17434291262202    4.74612389368223
C        -0.39442330166406    2.02420293822585    6.36574472764601
S        -2.00276723703253    3.41083977521853    3.05040437941443
C        -3.83520096189725    1.68763324293884    2.03538526884213
C        -3.50591477503839   -0.66552030486374    1.93934850857724
H        -1.62416947930941   -1.31967373962470    2.75171763024064
C        -1.98818088188368    4.10004533571356    5.66054544783242
C        -0.82493803204921    2.89582096975089    7.34273399576393
H         0.21653219395475    1.16895387572991    6.62354990799568
C        -4.30600412528411    0.43671974140160    1.67418569691024
H        -4.40817343144341    2.58531364217699    1.86799935387482
H        -3.82749123392658   -1.66247454557736    1.68574593553028
C        -1.62842537991275    3.97257518425217    6.99024607165129
H        -2.62749940840316    4.89638323855301    5.31535738707638
H        -0.53213014021942    2.73031415290241    8.36678476512774
H        -5.27198035716884    0.32862966317427    1.20644588924409
H        -1.97430091360713    4.68034352899484    7.72622346192844

