93
CSD_code = YILYIB | q = 0 | S = 0 | Stoichiometry = C39H47MoN2PS3 | MND = 7
Mo        8.61446964462819    0.50571535384452    9.95270187728864
N         8.14931813387349   -1.50291673285102    9.68952017104271
C         6.89337920840709   -1.55171099881824    9.20979000739046
S         6.27738368724197    0.02936630469160    8.93237174808422
C         6.22448158595908   -2.74321084764357    8.96584462421003
C         6.89079202275329   -3.92909611621784    9.21363183247001
C         8.19443993131206   -3.87912983986598    9.70039714061859
C         8.78544529087151   -2.65287834425929    9.92539500555399
S         8.50202047898650    2.83572581375548   10.14313274849222
C         7.87631794424828    3.26806498584327   11.74378513404762
C         6.51670779972950    3.58113219334723   11.86850190806449
C         6.02671745878976    3.88720004560469   13.12657054764958
C         6.84625224346654    3.89669930360194   14.24606965885959
C         8.19679705232144    3.63538839563129   14.08159350942566
C         8.73969523403067    3.33192138131550   12.84167201039788
C         5.63636470976978    3.64171291522788   10.64063263544739
C         4.14789628548345    3.45325842816708   10.92576276925011
C         5.86593702574507    4.98688861158106    9.94252165087577
C         6.29445063943633    4.23127401299095   15.61067182518645
C         5.79616682693004    5.67781948881644   15.64830376029833
C         5.17902545929705    3.26391799676253   16.00952034361774
C        10.23012522174402    3.17325102906997   12.65345350108432
C        10.95865792111563    2.65066661295235   13.88876324787577
C        10.80932525081960    4.52441784110078   12.21974456674361
P         8.85182337556245    0.76341732517392    7.54295782646961
C         8.81201173390181   -0.89609864655803    6.81460457359644
C         9.90929986443124   -1.71916700304767    7.06233961004990
C         9.89898509937465   -3.03717614308376    6.65124807484731
C         8.78577385931330   -3.55219827809108    6.00384172712123
C         7.68857362333928   -2.74318209597590    5.76608883871721
C         7.69588316784224   -1.41871173614208    6.17044779695399
C        10.42876779516650    1.41105032194961    6.91314068492046
C        11.15312619878137    2.31482162777921    7.67979244198909
C        12.32286334425523    2.86289055107873    7.18393875850006
C        12.77464736796110    2.51050956385232    5.92270854790501
C        12.05169079475978    1.61344999156679    5.15267566940117
C        10.87830412925388    1.06914953014772    5.64139410606335
C         7.70478849870451    1.73535449081109    6.46918794060490
C         7.87254298811430    3.23231608577826    6.69538751973602
N         7.50109967407326    0.36928057887712   11.72277298732132
C         8.37897497064526   -0.00206600995094   12.67140059971600
S         9.93844898834638   -0.19946126642497   11.98142127946497
C         8.03267807028896   -0.19332638228072   14.00281201882650
C         6.71707730675608    0.00821732303863   14.36962110611780
C         5.80139037832761    0.37997919490651   13.38933527431169
C         6.22903981153741    0.54664739765720   12.08870718364246
H        10.13530111719437    0.29818945600562    9.50911694015745
H         5.21622588995853   -2.71457348947868    8.58502468678469
H         6.40814414611270   -4.87622685899512    9.02951783618770
H         8.74528457880385   -4.78355842522543    9.90146068705928
H         9.79581149701579   -2.56503019496564   10.30759447260097
H         4.98261363296686    4.12999433627155   13.23794119350733
H         8.84365786127682    3.68096952705975   14.94407641467596
H         5.95076246322874    2.84551822621042    9.95052631938774
H         3.72934627893430    4.32926466347339   11.41688237804912
H         3.97230623150415    2.58240971676051   11.55375357150110
H         3.61580107401792    3.31031115897702    9.98752458529037
H         6.91560479543512    5.10841548710262    9.68648786591710
H         5.27596097071122    5.04444273206277    9.03035820590679
H         5.57500653035658    5.80370280728977   10.60051481962681
H         7.10686207765315    4.13188850464302   16.33964345588669
H         5.45486878586875    5.93470721066235   16.64900997390491
H         6.59587622518282    6.35998414594652   15.36816748864257
H         4.96932964367931    5.81800210433477   14.95636819177328
H         4.83878630234821    3.47729618545164   17.02079319268138
H         4.32947760051910    3.35298321892503   15.33701966731256
H         5.54015100231521    2.23876046052237   15.97268589733203
H        10.40651238232915    2.45832644817037   11.83595696066474
H        11.97912966529825    2.38624627469981   13.62103182345100
H        11.00011379870628    3.40323998308877   14.67321920978712
H        10.46840160953646    1.75973059417213   14.27469479865054
H        11.88038831083230    4.43684204825391   12.05100650385051
H        10.63554665608362    5.27418095551362   12.98973726352655
H        10.33797705436732    4.85915651001948   11.29794915778995
H        10.76452620328369   -1.30633392833258    7.58283748036334
H        10.75434860793869   -3.66875114574408    6.84153934978591
H         8.77354719989259   -4.58538779501909    5.68957096018210
H         6.81826911571541   -3.14540683408649    5.26813459342627
H         6.82917540449258   -0.79789527222903    5.99326633823823
H        10.79191131488481    2.57938111235236    8.66584259463200
H        12.88364193472887    3.56561364804926    7.78229079765230
H        13.69051325251593    2.93456556817433    5.53792632762667
H        12.40311930654869    1.33891421603564    4.16855338550248
H        10.31355863001109    0.36674142700298    5.04212583012065
H         6.67782158963358    1.43754054646502    6.69866568962962
H         7.93641806869100    1.47036490721215    5.43095808706921
H         7.71185509780721    3.47558979654409    7.74456085745003
H         8.87454760572783    3.55676128486615    6.41977370251611
H         7.15128964945878    3.78531938478925    6.09669088747305
H         8.79285171007351   -0.49186115157479   14.70656599616553
H         6.40485118810769   -0.13112249813975   15.39327536127688
H         4.76346654046988    0.53983108722670   13.63266081622267
H         5.53408130047336    0.82108760374761   11.30612059285404

