65
CSD_code = YILZAU | q = 0 | S = 0 | Stoichiometry = C13H43B2N3Si3Zr | MND = 9
Zr        1.25772438625507    2.50335486004352    4.69386096774380
Si       -2.04011996864465    1.48713807919066    4.39210377007183
Si        1.54098725078080    2.37495045280979    8.08435021159102
Si        2.23622437718606    2.17207059141736    1.46107142467740
N        -0.52276705898087    0.58542731802085    4.57237788024798
N         1.05908028020510    1.68295004280671    6.59780435615618
N         1.43623839340373    1.56318419196071    2.84286534180141
C        -0.35607009756796   -0.12693501280707    5.83896801585909
C         0.96898998649598    0.24257640506537    6.52389316626093
C        -0.11197704133660   -0.20598476067796    3.41287942668686
C         1.32451226917133    0.12950905621496    2.98219218364527
C        -2.22068326858266    2.53441306343335    5.97706653513595
C        -1.91677123884655    2.41178672371164    2.72699020086940
C        -3.50474482706707    0.24324184856943    4.30196911243577
C         1.80171392110227    4.25281933339712    7.86338762105015
C         3.13639162366113    1.60193262157600    8.83250498572975
C         0.17722130915715    2.13098809730092    9.43021390234155
C         2.43260235330608    4.06352897897385    1.62788304217433
C         3.95940704210378    1.38057778075808    1.13337069848366
C         1.21044697521435    1.83273126542368   -0.13938569492150
B         0.11401805538751    4.68750320645449    4.50604892784239
B         3.74438142278262    2.72686162772095    4.95055278212550
H         0.93931487322185    5.55761814832893    4.52743115375050
H         0.34616093728812    3.91306275268347    3.54485362254437
H         0.18552600349764    4.01627160975506    5.56350305479014
H        -0.98620774684874    5.12936030469897    4.39428451407514
H         2.89930368241266    3.67317145161566    4.83911669676525
H         4.50943594892328    2.78638153606221    4.04038602702417
H         3.13544744158102    1.61365146165763    4.90323610620419
H         4.29195505561394    2.82188612307593    6.00346762503235
H        -0.41802865520491   -1.21279872484454    5.68227287847032
H        -1.15902122414782    0.15505132096652    6.52551369705279
H         0.97996211142013   -0.23533948544849    7.51499014871054
H         1.82087888930166   -0.18804359758101    5.95344352026987
H        -0.76174422157104    0.02463739887470    2.56431252893456
H        -0.20893758561219   -1.27994585233196    3.62416184477073
H         2.04447185611969   -0.26264911761727    3.73383034499700
H         1.52799376569960   -0.40573048258315    2.04246607688686
H        -2.44937434292124    3.56883808696366    5.74173434663226
H        -3.02317217270331    2.16702593255088    6.61128698551896
H        -1.29171993154061    2.52191271162453    6.55259417273722
H        -2.18467701040895    3.45758186902101    2.83809975150850
H        -0.89683954520003    2.36957521157141    2.33787713338824
H        -2.58650516009336    1.98828381107437    1.98316217089117
H        -4.45010423713928    0.76171809089783    4.18428677083392
H        -3.40400005974169   -0.43863393733287    3.46270880198898
H        -3.57756307842463   -0.35970159988150    5.20239229954286
H         2.30561359125574    4.65737105078309    8.73517918761079
H         2.41911421508310    4.47192792519653    6.99468960835160
H         0.86238762042777    4.78745151465509    7.75844181606202
H         3.45452523251544    2.12167155171050    9.73064600480486
H         2.98058689974141    0.56022618927030    9.09937371735951
H         3.95562309737651    1.63824950209182    8.12008842684106
H         0.51321885386367    2.49405266468642   10.39529401967867
H        -0.73741972117780    2.66233113411387    9.18310941882729
H        -0.07713924170534    1.08175080919277    9.55060414902495
H         3.10634678023307    4.43136167140350    0.86082573124411
H         1.48858569999159    4.58567867916427    1.50341024417834
H         2.85136849042179    4.33879756789005    2.59390993797634
H         4.46982604221189    1.85216851944479    0.29967328146979
H         4.59896210389517    1.46835356466185    2.00701381111873
H         3.86705691571829    0.32329348999294    0.90021586378596
H         1.75089064576857    2.15562033003849   -1.02242138844981
H         1.00058503521424    0.77368904868671   -0.25858620901008
H         0.25840600053131    2.35549399174007   -0.13094875220307

