33
CSD_code = YIMBUR | q = 1 | S = 0 | Stoichiometry = C6H16CoN4O4S2(1+) | MND = 6
Co        8.13546818571974    3.66730948018924    2.62372582225291
S        10.66904064921074    4.03261247839747    2.92406934439066
S         8.36834146315319    5.62411567444459    1.04790848962698
O         5.84000801410178    2.84736242296163    1.88173549502599
O         5.90403286710670    4.77901163996835    2.86486422452006
O         7.28182416647338    2.14829973679221    4.47012869440954
O         8.94917884120167    1.40349981165168    3.29748441443909
N         8.11822567971733    4.77624777798690    4.38862742380161
N         8.35237835006611    2.57937944374040    0.85759843334121
N         6.36755948671119    3.76654463636424    2.43502542783340
N         8.10095976472444    2.19198791162898    3.59948753442928
C         9.31964415276438    4.69384117755366    5.23463579757055
C        10.55633064394274    5.06825504792889    4.43593592494155
C        11.13639389867922    5.28781459005731    1.67849282862906
C        10.05302365996169    6.28517221277861    1.30524614331609
C         8.50540068775184    4.63884891258088   -0.48280560039968
C         9.06233303049880    3.24215438945320   -0.24563504462580
H         7.93700346493292    5.75564368386384    4.15275629194770
H         7.31408431989546    4.48380906785285    4.95069338752041
H         9.23870512860237    5.36286746406135    6.09915951040470
H         9.41646007744159    3.67159077533708    5.60993083730214
H        10.51920389586120    6.10932808102976    4.12147044880159
H        11.45819472501461    4.89634378668550    5.02138466633142
H        12.00487052549149    5.81736327027663    2.07200750196847
H        11.46145006889878    4.71282503952476    0.81274588008827
H         9.91225194313566    7.02982331874420    2.08986810499611
H        10.33389216184947    6.80996871563814    0.39165015432390
H         7.48106237678046    4.58726493486354   -0.85535706788472
H         9.11076724675078    5.19687160183341   -1.19443092984988
H         8.96415254890832    2.66877612909725   -1.17499125602352
H        10.12247290758937    3.28649462767126    0.00887719564941
H         7.42495684998732    2.29128680734869    0.52817544443605
H         8.84692821707486    1.71038535169369    1.07743447648541

