44
CSD_code = YIMCUS | q = 0 | S = 0 | Stoichiometry = C12H24ClCuN4S2 | MND = 3
Cu        0.33982857538808    2.48152024815583   17.17181553908361
Cl        0.50869513945890    1.97627056273130   14.95159994029073
S         1.06862524005611    0.92582770939369   18.70397964237129
N         1.86255303022539   -1.58670896287264   18.27170101565289
N         0.99073747262995   -0.61240940567719   16.50369861483651
C         1.31809015821651   -0.45607866945536   17.78841579521139
C         1.90569175862326   -2.62053295222359   17.25240409990267
C         1.44978232166357   -1.88120645550006   15.98313838734603
C         2.24609620459115   -1.80653656335817   19.64742193913061
C         3.73327278082026   -2.14219513803422   19.74807355693323
C         1.38351738704072   -2.88949583084664   20.29442929788159
S        -0.59979660050922    4.50363827857214   17.74362760887261
N        -1.87422410781670    6.24179791098051   16.16808404827560
N        -1.45632382398021    4.30705053657882   15.20555311027886
C        -1.32081738716972    5.02542430724377   16.32355971090182
C        -2.48725750179036    6.36752001174263   14.85709925311280
C        -2.02597110039874    5.09208626910523   14.13227129562752
C        -2.06289796078314    7.20383291607638   17.23071215601092
C        -3.50897850239660    7.20229536151242   17.72738479415983
C        -1.62538096141713    8.59596945211652   16.78291694271157
H         0.74942073948712    0.17683266987948   15.89518961669046
H         2.91635594940514   -3.02463117367222   17.15636337674097
H         1.22378353156253   -3.43814892364936   17.51003503152194
H         2.27199683771848   -1.73176935801622   15.27430669354728
H         0.63680800383586   -2.39551898053535   15.46477226346483
H         2.05947418795857   -0.85260071248578   20.15108117100357
H         4.03316496517500   -2.15765939038209   20.79177220571566
H         3.94476724988214   -3.11829159535694   19.31673157904457
H         4.32361932239414   -1.39024622383947   19.23075591233055
H         1.59647163505517   -3.86687050558465   19.86648197861237
H         1.58993291676489   -2.93013258877180   21.35986712899176
H         0.32938238970269   -2.66238320118289   20.15624590743761
H        -0.90441728285361    3.46077834048021   15.02974188888620
H        -3.57842964783576    6.40855349018409   14.94727650665664
H        -2.14235617021294    7.27542546458340   14.35707035806653
H        -2.85143305061131    4.55079749739749   13.66349464888332
H        -1.27147439965545    5.30394962528281   13.36634959609783
H        -1.41107835839594    6.86378893310085   18.04203923149299
H        -3.59467073569216    7.83798259056508   18.60369661680565
H        -4.18577953640090    7.57785326852273   16.96280992656017
H        -3.80678319917706    6.19362401344516   18.00226305293064
H        -2.30540886443906    8.99893454154980   16.03553992501132
H        -1.62128342922002    9.26653457310511   17.63727464212358
H        -0.62130517682839    8.56142805910265   16.36775399271449

