33
CSD_code = YIMCAY | q = 1 | S = 0 | Stoichiometry = C6H16CoN4O4S2(1+) | MND = 6
Co       -0.67720000490464    3.61902197042432    7.41707461929698
S         1.23788187942012    4.31309478125346    8.89952162928284
S         1.19142631050718    3.47284219930625    5.64713182134673
O        -2.61423854198970    2.27942728670575    6.40689163300630
O        -1.94241417617615    4.01887585785024    5.30380785318940
O        -1.80955343717132    4.55525904722027    9.48522401053615
O        -2.26069527077794    2.48056857855034    9.07576067529718
N        -0.94123634385481    5.66856689717126    7.20812778135026
N        -0.22603666027165    1.59919323914189    7.55275849281070
N        -1.94551585543519    3.25135772828645    6.22702476796616
N        -1.75779724422550    3.53826033462955    8.84819702470100
C         0.26178765351813    6.48404077851573    7.43086048414789
C         0.93177365769844    6.10362443046062    8.74228799012745
C         2.77074772327726    4.03943776865445    7.94010714945505
C         2.67776659055048    4.19433613836439    6.43097933150051
C         1.53847995382959    1.67989779675962    5.84260789737194
C         0.29710212018059    0.95733495719903    6.33509537329286
H        -1.30885555483098    5.88705150371832    6.27794332150571
H        -1.64877272488518    5.97886445817208    7.88138974375679
H         0.93719358627394    6.33693200225050    6.58678238599273
H         0.00572963823080    7.54958932297527    7.47290268329180
H         1.87941291271756    6.62153793453890    8.87578258307508
H         0.27721444704510    6.32895663462404    9.58538904801163
H         3.52093765872579    4.72493498497506    8.33490836666854
H         3.06557228279261    3.02624353655812    8.21585992759714
H         2.66624466897266    5.24337440094697    6.13956131432490
H         3.54273207817905    3.72759201898609    5.95818530697130
H         1.84687154623829    1.29689911348556    4.87113139735852
H         2.35943684783339    1.57930350534844    6.54964918466491
H        -0.47865050166870    0.98164193519840    5.56604698088145
H         0.54737445387790   -0.09282635999546    6.52419033286624
H        -1.08972526018030    1.11322919792965    7.81707208146415
H         0.42990556650425    1.43173601979436    8.32024680688914

