44
CSD_code = YIMDAZ | q = 0 | S = 0 | Stoichiometry = C12H24BrCuN4S2 | MND = 3
Br        1.62903040628481    5.25875395613460    5.94718647070388
Cu        1.57889483516461    3.60429529344482    7.58703614554176
S         0.01908264789568    3.60604878664404    9.30298775045408
N        -2.05093887710817    5.22814654429412    9.74415727736933
N        -1.14015500563836    5.47767876178572    7.75851544700174
C        -1.07643421535451    4.80942845916260    8.91572252877635
C        -2.88461133174761    6.23032817966867    9.10325951218028
C        -2.13479878711831    6.52631871053882    7.79411426063154
C        -2.38502194278062    4.60559672333310   11.00548949644287
C        -3.63790677639082    3.73804973399647   10.87952429159802
C        -2.53921070259324    5.65549336144630   12.10279201212561
S         3.06516266044704    1.82406232825970    7.61176613998566
N         5.08716281822238    1.24320569771590    5.97237898646462
N         4.25098231131901    3.25192460856578    5.66618327333696
C         4.15341858149528    2.12336245165393    6.37655116819348
C         5.91726180404990    1.80632820647200    4.92196829755331
C         5.22845900134698    3.14452989181819    4.60674627801677
C         5.34611015615840   -0.03724558536368    6.59054362740784
C         6.70103630020909   -0.04611275322713    7.29778803470754
C         5.24422110187180   -1.16471158812233    5.56492430608268
H        -0.38747545012405    5.47602978606059    7.07467013293452
H        -3.88650175315051    5.82980337253065    8.91376626208909
H        -2.97515318679708    7.11557998600123    9.73685250975074
H        -2.77995051504483    6.46708350891728    6.91438112147494
H        -1.65540742768235    7.51136079656774    7.80648932805638
H        -1.53197776214174    3.96093611268213   11.24245383089718
H        -3.79118610255750    3.18215331666300   11.79986632634598
H        -4.51935985898842    4.34878049405725   10.69614496941029
H        -3.52119545560937    3.02893465150856   10.06361899310942
H        -3.42981170525081    6.25948823043397   11.94378817203870
H        -2.62903152497910    5.16202915950213   13.06621162956060
H        -1.66873176677419    6.30629993082650   12.12891394659677
H         3.54075455421282    3.97961445345705    5.67227137255820
H         6.94066693875583    1.95398390657181    5.28314820639087
H         5.94426616794987    1.14068832218378    4.05590246685267
H         5.91780440003946    3.99171846488489    4.63959138271816
H         4.73602370658347    3.13695394059682    3.62819158409361
H         4.55460181573230   -0.16062452140441    7.33719576050042
H         6.80653455707195   -0.96304509439853    7.87026342600934
H         7.51671949106326    0.00563181615898    6.57979828238163
H         6.77457548608446    0.79679735686870    7.98061523565473
H         6.06295481914385   -1.11818052897102    4.85020515760143
H         5.28863385463331   -2.12348337506701    6.07329390621553
H         4.30090173208914   -1.10231585484217    5.02813069217494

