55
CSD_code = YIMDOO | q = 1 | S = 0 | Stoichiometry = C25H19Cl4N4O2Ru(1+) | MND = 6
Ru       20.84194368551359    3.78595765267178   10.86627039550004
Cl       17.48155431606209    3.40670042794583   11.09935079182265
Cl       23.25128761839871    5.94413315490647   11.77369596776763
Cl       24.00285145214938    2.71819679394967   10.28330745011379
Cl       19.10747903031860    6.64835725590150   11.15740025423736
O        19.92869385060635    2.15515322945912   11.77354149933475
O        21.36411900188630    2.55445152737929    9.27585839860008
N        19.38635004974716    4.20956995350098    9.54882293257103
N        21.71875701003143    5.22009065625734    9.82179631117899
N        22.27622397559080    3.20106886749806   12.14398748191205
N        20.29305505771496    4.77698466929697   12.48939057882029
C        18.11355886007379    3.83071862547882    9.56551044893011
C        17.31153550568634    3.80580168899389    8.43523544980372
H        16.28942514441057    3.47440997429220    8.50562471091927
C        17.86909651531677    4.21427168812647    7.23193323498791
H        17.28418537429165    4.18689023338804    6.32659213069290
C        19.17023104391191    4.68539048846690    7.21343103410112
H        19.60621956289456    5.03987345820267    6.29491408412325
C        19.91119866734134    4.68853650589290    8.39380767879963
C        21.23386739400404    5.28518365462686    8.55438185695509
C        21.92233142311478    5.96980202993037    7.55434922466094
H        21.54101904130727    5.98665267641739    6.54736476042938
C        23.09686873234357    6.63036088142133    7.86446159806021
H        23.65149431580901    7.15311880063644    7.10235409760144
C        23.53700333615028    6.64176409126347    9.18286450587207
H        24.41828810410537    7.18330940030220    9.48265090419372
C        22.80849522376604    5.92805547502368   10.11452275518653
C        23.41324465193446    2.56608201624825   11.88333133676834
C        24.12035809552502    1.84905172443756   12.83584545092220
H        25.03024846505838    1.34140379916349   12.56407921033637
C        23.61673052672977    1.81013512751149   14.12830414932814
H        24.12609196153966    1.24407806977219   14.89160605351245
C        22.47454796855805    2.52999126740265   14.43239680164873
H        22.09069682007858    2.53960460025365   15.43836095050849
C        21.82412764617278    3.23572724379939   13.42180412618554
C        20.70384599554277    4.15009001598718   13.62249141380295
C        20.15089465490086    4.46749070442587   14.86190647286243
H        20.46456565205087    3.94018389700227   15.74692404459874
C        19.19859705277639    5.46638447963066   14.94831557253736
H        18.74823435958553    5.71656286016025   15.89503440439850
C        18.85324495421473    6.17067403691526   13.80087972651500
H        18.15416402520830    6.98950950101554   13.82595392311638
C        19.43374426566178    5.78800701167969   12.60718155344556
C        21.06048332717254    1.33462405164668    9.15050836263957
C        20.38635065048943    0.54591591590572   10.08604813663142
H        20.23725103712561   -0.49202953336725    9.83451547210503
C        19.88826012777493    0.97753444758409   11.31778637073446
C        21.48948301809672    0.67082135418509    7.86307363846644
H        22.17487342365293   -0.14611574800727    8.07760510356669
H        21.98442836731033    1.39530310742862    7.22087311952543
H        20.62443676556230    0.25932359044063    7.34819642902794
C        19.21502244577487   -0.05198644472451   12.19459764494688
H        18.90645782817537    0.40594369379264   13.13127547187761
H        19.89550338708368   -0.87541439015475   12.39785121757959
H        18.34027923370008   -0.45390026136382   11.68743330523420

