31
CSD_code = YIMFEG | q = 0 | S = 0 | Stoichiometry = C13H11N3O3Pd | MND = 4
Pd        7.05082802440804    4.28571803207175    3.66976550415655
N         7.91589698891098    6.02268170080817    2.78192140526195
N         7.08554396065407    5.53720070161207    5.27607839067684
N         6.90321398226147    3.24243156941352    2.21347100461623
O         6.18080312932312    2.99171739493823    5.06272046269707
O         5.79765095748238    2.95972135587213    1.80825226138442
O         7.97156037006990    2.97169755443124    1.68428321371235
C         8.54047225587867    6.16610666113497    1.62261586791712
H         8.54101689234820    5.30449186640466    0.96491615400556
C         9.16454695920133    7.34885753407998    1.25389525841907
H         9.64912915440440    7.43135935236036    0.29527436646700
C         9.14446439576864    8.41064132555275    2.14623388970350
H         9.62277258486096    9.34602892618929    1.89778607276696
C         8.51433907730601    8.25528690318556    3.36722740190813
H         8.51927382097275    9.05865884126851    4.08555973766255
C         7.89485885093888    7.04035113649444    3.67680385841732
C         7.24411097247748    6.79102762652537    4.96862517437377
C         6.79915777580895    7.96486721841765    5.79245735699034
H         7.59061924489857    8.30982745511910    6.45870176515043
H         5.93737599511535    7.68336142069011    6.39448460311227
H         6.51322050260718    8.78974932426442    5.14337430986754
C         6.58727054004328    4.94209321940739    6.40624281579874
C         6.55863703063034    5.50224388370458    7.69426381716342
H         7.01401067605067    6.46329127755867    7.87208762330051
C         6.03719706256401    4.79931988760757    8.75196458339826
H         6.04103342515388    5.23186597487455    9.74061448699853
C         5.51303112602646    3.51847119682279    8.55318125837835
H         5.09368945838429    2.98189411584987    9.39161772669225
C         5.55214364732105    2.92697463000582    7.31836620842061
H         5.18414971581564    1.92488618218486    7.16164536544107
C         6.11848142230474    3.59057573114336    6.20496805514527

