90
CSD_code = YIMHOU | q = 1 | S = 0 | Stoichiometry = C35H47BrNNiO2P2S(1+) | MND = 5
Br        5.85199047051328    9.00260710397573    3.90219536994858
C         3.04742299994718   11.60818398972942    6.27137559380771
C         1.92201458547840   11.99971388181120    5.43567271146757
C         1.18320474196654   13.11074734088515    5.87014561206509
C         1.65510338085502   13.87652109102087    7.09353300636507
C         3.17350304981754   13.88001721027282    7.15178058218547
C         3.85503374240730   12.71390887193629    6.78771816577702
C         1.58050151313429   11.30488611087900    4.26986909132403
C         0.39318465985710   11.61707108919447    3.62626595668627
H         0.08394322527901   11.06506717176201    2.75418902636080
C        -0.39593858034179   12.64648653680898    4.10607526225221
H        -1.32240384925003   12.88689676079944    3.60741528147775
C         0.01103372606246   13.40759017735502    5.19030294119271
H        -0.60556957006050   14.23569991808993    5.49608791638999
C         5.23579272122091   12.56401611781583    6.96499227929406
C         5.94711071716671   13.62582094703367    7.50846272755217
H         7.00900673157191   13.55183536728594    7.67989257323122
C         5.29134400055158   14.79804103089973    7.84224390659092
H         5.85417869308866   15.62296617966533    8.25134862262607
C         3.92299774665476   14.92615797036055    7.67179406280786
H         3.45275622433363   15.85164704593948    7.95759942880802
C         1.16519281992260   13.11261670005969    8.34488835137758
H         0.07904612404925   13.05372079908232    8.34183991040369
H         1.48366765756664   13.62997102825601    9.24722011310051
H         1.56772373427830   12.10034121008751    8.36971302808690
C         1.07675888878333   15.29308764173529    7.13652491013570
H         1.39300690640728   15.86937632601078    6.27020273263819
H         1.39468376654222   15.80471293113474    8.04012285896895
H        -0.00816222771982   15.26138592914508    7.16387696581485
C         3.38971552548708   11.34513953902566    2.16874188333324
H         2.48669736159473   11.58374852738232    1.59608302563203
C         3.93862967060322   12.61693502595380    2.81453775127651
H         4.66153226543355   12.35479594799041    3.59653956468930
H         3.14992182036078   13.22309306847269    3.25775034228355
H         4.45488522611408   13.21961007181344    2.07092381324443
C         4.43679703683133   10.73228468265142    1.24568510840221
H         4.48734662057169   11.30625240307755    0.32298602334923
H         4.21278824726875    9.70034755589961    0.99462049212650
H         5.41843903999025   10.74525294710719    1.70966817610339
C         1.88750066643058    8.78255463334128    2.75433443730810
H         1.01723025897208    8.66571323576787    3.41202571943087
C         2.74138379908728    7.51525310152043    2.84352732591282
H         2.16543996660852    6.65500977275356    2.50909564966760
H         3.05501163255067    7.33064755803436    3.87083344143970
H         3.63250673940415    7.59453604545608    2.22218735318030
C         1.41638309889568    9.00331351102395    1.31881229692037
H         2.24844665888177    9.00537131282653    0.62072840424890
H         0.85719364554832    9.92645207498602    1.18967161766768
H         0.75961877591825    8.17879701549812    1.04618179537727
C         7.68635835093064   11.56313062850202    5.81166524326092
H         8.06046172457972   12.23231982937647    6.59567543447224
C         8.70478100605511   10.44635530309445    5.62049902941861
H         8.36240072889657    9.72191742426730    4.88716149582512
H         8.92774694928425    9.93886994514421    6.55484158342430
H         9.63154854725139   10.88141122757629    5.25263378339553
C         7.49910086524222   12.35465177555445    4.52257529712384
H         8.44333093883762   12.80376447191303    4.22471688113691
H         6.76873170243229   13.15372095872667    4.64996618809099
H         7.17692635805064   11.69152520930932    3.72253236714528
C         6.45922974896127   10.10062883455482    8.02751838180552
H         7.45469952730960   10.45596884737104    8.32249839453791
C         6.51606626568395    8.60708508397237    7.70313464015757
H         6.73542672032404    8.03013701834034    8.59946067641724
H         7.28131621500702    8.39262114249928    6.95874711768935
H         5.55972286649927    8.26972506210474    7.29911967520653
C         5.47545555040005   10.39545827569558    9.15477994490291
H         4.46154640866454   10.11810270429675    8.87297517812139
H         5.48432254333104   11.45134798863002    9.42141524038938
H         5.75085584010229    9.82002004018095   10.03684845811300
C         1.98525306132877    8.64905255700224    8.19784538254961
C         0.82193458799195    9.21894050259935    8.68213869508768
H         0.21835294450184    9.82435780678708    8.02239451620166
C         0.44424717660965    8.97847600981361    9.99105936248767
H        -0.46606442686296    9.41549618492611   10.37247307670039
C         1.22172804480763    8.17157366147944   10.81749868790551
C         2.38766068068479    7.60559241138068   10.30371356146021
H         2.99138803236427    6.97006086309055   10.93357524310639
C         2.77428839496850    7.84136666604130    8.99806687156932
H         3.66528265516151    7.39474655796540    8.58580006720501
C         0.81325903728848    7.89171526108610   12.22625824753788
H         0.53150408218768    6.84425368273932   12.32858630354619
H        -0.03269497046414    8.50571825876917   12.52163858979673
H         1.64091802486680    8.07592482889334   12.90852654769359
N         3.29305716748632   10.43542838527544    6.76906199784316
Ni        4.43546504491708    9.98647041242527    5.19764133213661
O         3.50120769566130    8.10262585051202    6.09650017039695
O         1.31664000973647    9.17152654127087    5.69885405311430
P         2.83572531123297   10.18587888823364    3.53785120380262
P         6.02723506980638   10.98432597291230    6.44424028383459
S         2.47288686127026    9.01500441608907    6.53682758506109

