59
CSD_code = YIMJEJ | q = 0 | S = 0 | Stoichiometry = C20H34N2Si2Zr | MND = 9
Zr       15.45571201169538    6.69256613505817    9.30953992264719
Si       14.83567238230064    3.14819071339940    8.38495316126602
Si       11.83667490728103    7.68126921506663    9.10831363062532
N        13.22847875287837    6.66915130713389    8.95809537742769
N        14.44991487037628    4.81256668716701    8.64666211030026
C        13.26152859131927    5.37539042940413    8.71980866223612
C        12.01894832467529    4.58023055594191    8.56227286306513
C        11.39385333857685    4.45882495628117    7.32841948368127
C        10.23685270529534    3.70944489576154    7.20723417845862
C         9.69672940586120    3.07963825675277    8.31596663513795
C        10.31809233497232    3.19806681177378    9.54832898798175
C        11.47644438795323    3.94437432832559    9.67245550049236
C        17.32774481409331    7.03345948242180    7.63096442636740
C        17.20928126007868    8.24069534742131    8.35447127191111
C        15.96377154267770    8.82180358855628    8.02961114747036
C        15.31487724386482    7.97346489372017    7.10772923615150
C        16.15383793845377    6.86783262144006    6.86443512136194
C        16.51895950832937    3.20608057834244    7.46923105283297
C        13.65396768389086    2.10240235745029    7.30039620668146
C        14.97481798897893    2.27148161535606   10.08392218670943
C        10.59291830884112    7.61414104434024    7.65229652705498
C        10.86149635554809    7.30945067370579   10.71594314223825
C        12.56937880581414    9.44734886944586    9.15102677677540
C        15.10752764858222    7.84021994051231   11.21448943404908
C        16.96022817094946    5.48781718412711   10.46071401672995
H        11.82068362399576    4.95018719135702    6.46679157665249
H         9.75477815265478    3.61561843945820    6.24515250722348
H         8.79353030998898    2.49534779424042    8.21989373940048
H         9.89886168209390    2.70626841610610   10.41406915239109
H        11.97070211815637    4.04147249728534   10.62872864166110
H        18.22152207770453    6.42247380454627    7.57085503852888
H        17.98906832346630    8.70221990991438    8.95009727816402
H        15.63617744771278    9.81306445348957    8.32010821213310
H        14.38812513610607    8.19191652908779    6.59015661755433
H        15.98375597431542    6.09479900457715    6.12366055535793
H        17.13293193976032    2.35187181096357    7.73447854708749
H        17.07192745679652    4.11057173805066    7.71617730044365
H        16.38570324261524    3.18025773916888    6.39155825726159
H        14.11847615902847    1.15406847338223    7.04932372111656
H        13.41031004849713    2.60406386952040    6.36929178001957
H        12.72033600366843    1.88650050959175    7.80911991637086
H        15.53688926940623    1.34694222449510   10.00499906346229
H        15.47300632444190    2.90556928611953   10.81189780987188
H        13.99315623035491    2.02329609381903   10.47744960840686
H         9.93092107687922    8.47361117992618    7.68182280286675
H        11.09666948071285    7.62380522357063    6.69045464605438
H         9.97616393478044    6.72224689073778    7.69274485103139
H        10.14694692661967    8.09688540209270   10.93123233260691
H        11.52371026941330    7.22055364396871   11.57250758232872
H        10.30882845492276    6.37839045376205   10.62980971446381
H        11.86463808548869   10.14532416721965    9.59093281823958
H        13.48567616667225    9.47955064447964    9.73561609059975
H        12.79659473065423    9.80784186765758    8.15195705959302
H        15.70686799841717    7.49543725677376   12.07075388926103
H        15.34488627761908    8.91030171687653   11.09349619429557
H        14.05543226243299    7.78082053013976   11.53460120370017
H        17.79534694792165    6.12349214181068   10.79991755756223
H        16.52691194185596    5.03668700758462   11.36832127814023
H        17.40505464152569    4.66402959934158    9.88684159641785

