115
CSD_code = YIMKOX | q = 1 | S = 0 | Stoichiometry = C54H50CuN2O6P2(1+) | MND = 4
C         5.41860751475720    5.41222929245523   -2.08355470007513
H         6.16183600859306    4.71605722520877   -2.44796184534401
C         4.49649946187014    5.99862985757223   -2.95154342165889
H         4.52691873153042    5.76490224079843   -4.00362918956089
C         3.55512500551753    6.86426575121560   -2.44241565166640
H         2.82522395888208    7.33453646174106   -3.08442706034209
C         3.54456817886159    7.13456667812905   -1.06426415098039
C         2.61567490829100    8.02033720997367   -0.44651610772666
H         1.87910307865052    8.50232172392437   -1.07159212044501
C         2.65640796644857    8.25813169197680    0.88649289477988
H         1.95513854184691    8.93666460716146    1.34812328626195
C         3.62619404393148    7.62611747267973    1.71601322039618
C         4.56111831176010    6.74090780226592    1.13795146844831
C         4.52176184025487    6.49552602776325   -0.27142811654204
C         3.71334738632416    7.84023775689935    3.10070904743437
H         3.01475166983342    8.50958471595205    3.58112076565130
C         4.68076863570380    7.18153971426452    3.82330675766930
H         4.77010410734991    7.31548292685803    4.88948568791336
C         5.55402328365328    6.31921536794967    3.15762434159712
H         6.31209410767377    5.77277255620386    3.70282019410933
C         7.19344677520809    8.65299653484182    0.67399078205172
C         7.12060912666354    9.18376526639633    1.95480837520950
H         7.81858251015029    8.85998257718197    2.71364280387049
C         6.17055138445830   10.13723174300060    2.27442134178925
H         6.14720675807033   10.53418623891346    3.27700737823251
C         5.26113262051365   10.56794013125036    1.31255134827517
C         5.34533982767609   10.04896142760816    0.01591334045536
H         4.64856227799609   10.40892827684386   -0.72435051691968
C         6.28777920327857    9.09807890061737   -0.29295987324192
H         6.34282842273550    8.69726677191787   -1.29699534260338
C         9.61882032620084    7.28511726275648    1.40661540626453
C        10.91239501103285    7.63913291899590    1.04838392485241
H        11.12502935838269    7.96944218095485    0.04160856913442
C        11.94365088184902    7.56387724634098    1.96838615571047
H        12.93874166129389    7.84141346600923    1.65862900503801
C        11.69392686509572    7.13373037836202    3.26888365151223
C        10.39053051302183    6.77826835340128    3.63151398753426
H        10.20744548806981    6.44937258902437    4.64179055466219
C         9.37732884333633    6.83140124028283    2.70523370215870
H         8.38024978811640    6.50801276904119    2.97194706144398
C         8.89129511513555    7.68712381360554   -1.35771354691073
C         9.36969552672051    8.97406512538844   -1.61375622018496
H         9.34173205531812    9.72185975368672   -0.83340351770157
C         9.86937023406896    9.28806025616977   -2.85497146405526
H        10.24651074645609   10.27482210633995   -3.07254831854828
C         9.89946602332002    8.33099250103112   -3.87827924407492
C         9.40875625616549    7.05129986479595   -3.62680861846782
H         9.40986377953928    6.29394093603022   -4.39511050934198
C         8.90729301225165    6.74238508312145   -2.37546147546858
H         8.52715664344612    5.74880980621931   -2.17717739294985
C         4.14211134143605   12.05302734411005    2.79915192802758
H         3.29281587269914   12.72978009771249    2.72651332634221
H         3.94597171087009   11.30564974912014    3.57459953691628
H         5.03694678587231   12.62414058346706    3.06229591731809
C        13.96069266894796    7.38357148470103    3.96181218193774
H        14.51151262937479    7.22634412007666    4.88755677783248
H        14.39746922671142    6.76599056833986    3.17100108697135
H        14.02320349568521    8.43821677482748    3.67991703480044
C        10.45449551042790    7.85761109525802   -6.14533535358983
H        10.88747684260212    8.42174792446295   -6.96913127196413
H        11.08599973351056    6.98978079695991   -5.93129700823825
H         9.45213996611849    7.52024386702766   -6.42532933962212
N         5.43424713641751    5.65589972201220   -0.79071893554702
N         5.50267260098022    6.11103274930572    1.86091351549708
O         4.26390490120461   11.45780798970442    1.52668887812794
O        12.63066818528996    7.00198967586935    4.23928197380704
O        10.41367162663656    8.74978617853571   -5.05473522388550
P         8.21400657772879    7.21017191482038    0.25622954134362
Cu        6.92497545528169    5.33420307720784    0.56395701205930
C         7.13137306540530    1.89759399330794    0.99444259794522
C         7.68187531136610    0.72531158140964    1.50076158724537
H         8.70452053414231    0.72272466958067    1.85164072815914
C         6.93195293178873   -0.43332801950258    1.55979356084996
H         7.38198168319606   -1.32968677064243    1.95601867177621
C         5.60980848643526   -0.43463083972812    1.11311857848042
C         5.05620380791046    0.74889594161367    0.61039280775189
H         4.03102228532043    0.72881390534969    0.27599493399219
C         5.80782388945533    1.89948543423793    0.55610940181653
H         5.38289968803495    2.82123607552178    0.17691972266332
C         9.03686720310232    3.43313167063083    2.42961848121386
C        10.42092943007795    3.50070872838634    2.48800475784981
H        11.00483031941042    3.46378983318815    1.58011621934618
C        11.07068557530914    3.61347873979903    3.70392674104831
H        12.14752893504107    3.66636814009293    3.71782988207467
C        10.33992546194707    3.66457942068689    4.88831924657539
C         8.94356358037066    3.56872727950024    4.83102654047930
H         8.39289223895147    3.59035630113170    5.75866839332445
C         8.30517841175408    3.46482859858516    3.61938918643760
H         7.22513428309180    3.39916700189876    3.57201783745926
C         9.28816334187065    3.17556219069972   -0.41310406416442
C         9.32582710221258    2.03905619691328   -1.21811267002804
H         8.63822241622245    1.22584989538820   -1.03650483799914
C        10.23771516856729    1.95129001626066   -2.24640611181976
H        10.28176563972393    1.07833363141532   -2.87827999433152
C        11.13297645921829    2.99531305652560   -2.50241687686344
C        11.09066985833310    4.13725366134843   -1.70389800721794
H        11.75899184150149    4.96611443562118   -1.87725273461885
C        10.16681933269417    4.22194584145624   -0.68073509180561
H        10.11933319581565    5.11950121560915   -0.07441816630680
C         5.27077376589444   -2.73645136220965    1.61940883631931
H         4.43786717166955   -3.43189125449494    1.53468431632708
H         5.57202421577000   -2.65924671846662    2.66841406063938
H         6.11078072434084   -3.10365928548918    1.02206212772207
C        12.26003241534954    4.02102673727731    6.24569479238076
H        12.44093843695474    4.15930968809348    7.31003291740089
H        12.57463064614872    4.91679114617707    5.70176348654061
H        12.82671363450332    3.15383917531249    5.89407399785730
C        12.92802074293198    3.80322034656363   -3.83962872999640
H        13.48518991273138    3.43162129500658   -4.69770303114224
H        13.61552831837629    3.96178095477517   -3.00324070935710
H        12.44953950738714    4.75268410953768   -4.10123918708643
O         4.78800553350394   -1.50541263549809    1.12816693321921
O        10.86919835413712    3.81454843981545    6.12187252227589
O        11.97668962841882    2.80772424804421   -3.54380311243695
P         8.06293946677059    3.44635497428293    0.89698123258446

