74
CSD_code = YIMLAH | q = 0 | S = 0 | Stoichiometry = C35H32ClN5Ru | MND = 9
Ru       18.58986058964294    3.01037389161266    3.41823596779782
Cl       19.96485884599919    1.07740689536822    3.23217848522545
N        18.65418693144090    2.22934043626279    6.37396768266896
N        15.71647258917955    4.26168271335222    5.62202571610731
N        13.59215823819818    0.90486991366588    3.83524380000483
N        17.45969343159250   -2.79117356700215    2.14972398273764
N        17.47015886959901   -0.48175576390762    5.86877645388783
C        18.57347376438185    2.58145909653019    5.26309791167423
C        15.76760451605180    2.23370834556802    4.06328855241850
C        16.90126730472745    1.87822852422737    3.39458152837630
C        16.97087711489483    0.63097127624592    2.65352913013724
C        17.22343334022829   -0.53188581717227    3.32259577299291
C        18.92392064933595    1.71931296496789    7.60257172934308
C        17.87940732814427    1.52530033834096    8.51245154570741
C        18.19609461935779    1.00161993768485    9.75607404411318
C        19.50269893044878    0.67919050366449   10.07905791804832
C        20.52008111162087    0.86696906066749    9.15853597542989
C        20.25216802092588    1.38824165889805    7.90357503432329
C        21.32513171252017    1.59959026787168    6.88358515601087
C        16.47439385178779    1.83981081459739    8.11774269484046
C        18.42892237285944    5.32844928545103    3.56650368597925
C        17.64561465492940    4.89032732237642    2.47151815322846
C        18.24639054338314    4.16330047898017    1.38866287538348
C        19.58974773056976    3.76271700807529    1.48895242148535
C        20.38707261114111    4.18039283814247    2.60806335606059
C        19.80267672703629    4.92464916016575    3.65390409537251
C        17.84773696622620    6.32661811200189    4.52867422779512
C        16.22410750291536    5.36599549560119    2.32969077062146
C        17.46604827751037    4.02726978101790    0.10700598047666
C        20.24514749381462    2.95551000547493    0.40034715049455
C        21.86288122633644    3.88730505350798    2.58546160851709
C        20.62694316738677    5.35012131183758    4.84343334514531
C        15.75465014230701    3.35769181174385    4.91111591274360
C        14.56442243518352    1.50050579835508    3.96316617859103
C        17.36310601114799   -1.77482613443084    2.67188599667407
C        17.36665164647840   -0.51881462887429    4.72675645742003
C        16.83971208102271    0.64334321625181    1.18627673906578
C        15.66364586075285    1.10658389342750    0.60064215255295
C        15.52033892458784    1.07536590594204   -0.77556841032940
C        16.55415705665668    0.61123438080217   -1.57248380269401
C        17.73008687527802    0.16518379883878   -0.99134250637506
C        17.87353579253178    0.16877331351725    0.38433824776582
H        17.40748932516100    0.83882977008675   10.47530683771477
H        19.73009530624336    0.27091458085476   11.05241576746280
H        21.53500599101348    0.60064798225702    9.41408242442999
H        22.25810488096172    1.14518955975153    7.20530716090687
H        21.03085915743955    1.16790430922757    5.92659994359174
H        21.49250606250387    2.66652105107305    6.72750782659682
H        15.80174836728297    1.73880991778123    8.96467640046701
H        16.39396027538028    2.84863708795591    7.71470821542149
H        16.16115340971745    1.14635588070370    7.33651432466713
H        18.61731595826573    6.81175661432187    5.11927819554649
H        17.31260480751596    7.09802846876055    3.97654758695955
H        17.13929916337262    5.84788642717625    5.20797636937007
H        15.76116122878295    5.51997697669340    3.29989086248397
H        16.20255309043711    6.31236866032338    1.78432365524637
H        15.62118134883476    4.64641639690031    1.78070416110231
H        17.04428159411092    4.99762585745572   -0.15545039615503
H        18.09561289420058    3.70568536106529   -0.71622319003703
H        16.64563562876290    3.31615873086452    0.19753778708065
H        19.51253921550103    2.38945110005174   -0.16916081939455
H        20.79713322107817    3.60540979374020   -0.28152556892314
H        20.93594515833974    2.23600264613206    0.83544958759085
H        22.05023466403738    2.86074223039052    2.90859202982091
H        22.25345366342813    3.99940221785812    1.57618609484914
H        22.41581947104665    4.56174673579229    3.23237939671476
H        21.42123218230656    4.63477627132318    5.03924494993144
H        21.07532307363247    6.33022154505319    4.66975999923989
H        20.01157295640724    5.40033177627982    5.73888560220696
H        14.85187997925579    1.45153021278333    1.22614066776660
H        14.59895925661774    1.41575477957979   -1.22459605292988
H        16.43995740060079    0.59240353974792   -2.64608577086140
H        18.53618589007391   -0.19888773166678   -1.61101786420591
H        18.78715751751994   -0.17615744998882    0.84550009752142

