65
CSD_code = YIMNIU | q = 0 | S = 0 | Stoichiometry = C23H35BrHgN2O3 | MND = 4
Hg        1.28779202322616    5.77516036311529   14.28523545785562
Br        0.36945264520708    5.97691977746074   16.47482892934303
O        -0.58561559403777    5.99067902511913   11.04814601478436
O         0.40529931874139    6.95417566717726   12.66429471874537
C         3.46131187100971    5.51916424940793   13.61786643631662
C         3.97885696905158    5.28015391348316   12.22680806772335
N        -0.06432341208833    5.93685607506430   12.11994627068322
N         4.44619172674772    5.60485522290316   14.44766284169942
O         0.05768133501989    4.85680244076481   12.72792388928007
C         3.67033135007270    6.53632403045771   11.38609811741807
H         2.61136311631672    6.78464519283405   11.49019823468543
H         4.24113457848636    7.38296820788637   11.77575551823538
C         3.75780431341094    4.77253754753192   17.98761308521615
H         3.58422030783677    3.90313638115596   18.60032840435332
C         4.09062696406296    7.04490691062450   16.40872840037218
C         6.64852715812923    4.45081375806355   14.62087257697258
H         6.69352645026585    4.70412023112647   15.67783940766836
H         7.66056695895255    4.45759898418233   14.22313477918414
H         6.25447795811996    3.44492417279274   14.51485651012843
C         3.23052516290241    5.12897729265410    9.35661275364024
H         3.46606881210608    4.99390495332181    8.29983702176732
H         2.15544720084603    5.29913966277964    9.44213475638422
C         6.54783701813958    6.81278920650306   13.90250298580069
H         6.02889106855163    7.57649010316682   13.32942651012995
H         7.53640153208752    6.68226540713596   13.46809400035606
H         6.66912982211482    7.15362075072157   14.92675183951260
C         2.74402525349818    8.96438491602186   15.54906672921407
H         2.04214965294208    8.34950731804187   14.97693863364414
H         2.80373182726490    9.93522635966094   15.06237655272367
H         2.34198804255194    9.09647000237863   16.54961476531249
C         3.26985456873367    4.05846633288015   11.61698211913748
H         3.54558797007606    3.16268474486691   12.18022098240684
H         2.18815518134183    4.18101537474856   11.71155659383374
C         3.71517326748034    6.02550358318447   18.56367084035928
H         3.52922954944898    6.12801310183416   19.62104557092891
C         3.98398518576565    6.33362436729647    9.90741310531906
H         3.69971247420334    7.23522458025085    9.36257806997046
H         5.05762566920333    6.18414946583639    9.76682960995086
C         4.20673433548390    5.76365813651752   15.85328032777829
C         5.49334576714715    5.04814553655806   12.42007806628749
H         6.08043907212392    5.62365123493121   11.70824128824908
H         5.73083402311962    3.99354491441163   12.27783163164057
C         4.84819321934173    2.24915318211345   16.78343327503726
H         5.84999454441713    2.65952370601193   16.88653952665972
H         4.91363522001025    1.31032700101827   16.23780646009537
H         4.46512701917342    2.03203294410183   17.77616015508972
C         3.98860475904553    4.61351569747577   16.62762962475206
C         3.61365070669177    3.88052906955256   10.14237344623484
H         4.68381980032785    3.69027990030417   10.02754840281089
H         3.07537074558723    3.01421052263220    9.75525304636428
C         4.13153424407405    8.31526603411219   15.58805327290354
H         4.39991760490621    8.07603197887883   14.55784346606311
C         5.15364836556662    9.31316736227997   16.14232215765644
H         4.80677268984049    9.74337268263249   17.07732332795270
H         5.30062510719937   10.12445573195872   15.43323264803804
H         6.11499966123913    8.83753299619360   16.32479493223649
C         3.85966546650654    7.14766950554545   17.77526285492411
H         3.76637134000783    8.12355361040888   18.22298832652144
C         5.80865653775298    5.47484046042854   13.86302425269372
C         2.48307276399454    2.69727026183452   16.08578340651193
H         2.45584390120288    1.65574105470097   15.77326597383063
H         1.84127528792119    3.26651476291059   15.40621422841965
H         2.06788351879030    2.77531503284389   17.08652711005193
C         3.92303851263260    3.21922192085658   16.04150609060732
H         4.22000048810872    3.24757508438047   14.98989159952101

