48
CSD_code = YIMNIR | q = 0 | S = 0 | Stoichiometry = C17H22N2O6W | MND = 6
W        -3.74596891794695   -5.94185991141679   -5.89118563539160
N        -5.78678196089539   -5.10124175551080   -6.19089459203900
N        -4.62973054611118   -6.64575131374980   -3.97443052365350
C        -1.94773465125978   -6.68853334811131   -5.64043019971494
O        -0.88756469783145   -7.13355920926227   -5.58395895244819
C        -3.04921050453770   -5.32375093251902   -7.61840344068400
O        -2.61046111463328   -4.96645122478221   -8.62055672440659
C        -3.19475149459896   -4.21270751298125   -5.07383621255770
O        -2.82099984116015   -3.22534813949773   -4.62908267508585
C        -4.25491556923085   -7.69304079477776   -6.68540701160623
O        -4.45982995897805   -8.72281500741988   -7.14437602092629
O        -6.17012705309644   -7.14520250836844   -2.43698147219460
O        -7.80510545152229   -4.25184031664741   -5.75617979403768
C        -5.11502841834949   -8.06709513768598   -2.17055000733978
C        -7.55273570518444   -3.84720643983445   -7.10048584341765
C        -5.78310960521064   -6.40853882049719   -3.50010640270712
C        -6.71552038347600   -4.93286028435910   -5.34362953285251
C        -6.76316837260197   -5.36233300156615   -3.91554725805263
C        -3.97995792691828   -7.63457792258366   -3.12769775177967
C        -2.75426187039868   -7.00969069964568   -2.42855237224084
C        -3.12714555840290   -5.80287016462146   -1.57053916476407
C        -2.00815826536168   -8.06381191347895   -1.61629771056830
C        -6.20438041133469   -4.51756635389950   -7.45682802186039
C        -6.28336927930153   -5.58777748795394   -8.56290545098689
C        -7.29385242123044   -6.68578933344966   -8.24004365284779
C        -6.57903926066907   -4.93423474113687   -9.90947535537422
H        -4.84987555508433   -7.99354436221208   -1.11536237501719
H        -5.47706457422757   -9.07828527788743   -2.37866428250202
H        -8.38447865121573   -4.18024364193097   -7.72253530421766
H        -7.49963633424404   -2.75528334239661   -7.12882434939542
H        -6.59762203237171   -4.47508508618848   -3.28907904760645
H        -7.77334077952414   -5.71683810710772   -3.69046427510101
H        -3.63291442496285   -8.46813152208103   -3.74767112892202
H        -2.09627172219428   -6.65755840013507   -3.22922223066153
H        -2.22787147131967   -5.37560994386181   -1.13476153195485
H        -3.79950536158416   -6.07203615552980   -0.75812073099629
H        -3.60112312499866   -5.03536604311439   -2.17932890218456
H        -1.72312473113642   -8.90076255368605   -2.24866965594420
H        -2.61755234912974   -8.44070903945586   -0.79741003512529
H        -1.10402105374509   -7.63203511804658   -1.19569504421653
H        -5.45619274604718   -3.77554680237249   -7.75763546176529
H        -5.28959624093148   -6.04584349066967   -8.61081717241549
H        -7.08064813490239   -7.12807432516110   -7.26829617600198
H        -7.22859193524835   -7.47189544352907   -8.98771571398914
H        -8.31505698637769   -6.30951745631029   -8.23681956243665
H        -6.58132298723029   -5.68711658515484  -10.69300277114211
H        -5.81749554098107   -4.19628545786903  -10.14857003976280
H        -7.54928402234690   -4.44157756955454   -9.90655242905639

