43
CSD_code = YIMPER | q = 0 | S = 0 | Stoichiometry = C16H16CrN6O4 | MND = 6
Cr        0.33754427220293    1.38343190968910    5.64300828636663
O         0.54030409087427   -0.46449434461535    5.84182362758415
O         1.13385150226230    1.79305379698291    4.00174032164724
O        -0.36344941100159    3.40746391380647    5.63316165575443
O        -0.36109518515219    1.37136688626113    7.66706181612282
N        -1.34183751438772    1.11869066497694    4.82827366312957
N         1.96563009152288    1.73076448211172    6.52726607699624
N        -2.12557489990991    4.59902318476973    4.82962386577498
H        -1.59055839583691    5.43709788090880    4.99049624419598
H        -2.81245927524190    4.64694287034315    4.09686856404561
N         0.49756348857338    1.48620539631363    9.76955004149034
H        -0.38707585332185    1.14892938235092   10.11315980223036
H         1.30147559196147    1.27418255929396   10.33486550942093
N        -2.02542525389330    2.29210753405796    4.62120307158148
H        -2.92393835558077    2.26297756789806    4.14568719685051
N         1.84229153463892    1.72211989527780    7.89545544781342
H         2.67332933923884    1.85194603080462    8.46694525828881
C        -1.91511795913686    0.02752637748561    4.39576909294980
H        -2.88799884878314    0.08991672453547    3.90475501861017
C         3.16639424373508    1.93117448531817    6.05301053662311
H         3.99854759080461    2.08055899213402    6.74328523506345
C        -1.33354116730043   -1.25426142676687    4.56170272632862
C         3.43519854355801    1.99072137877529    4.66296275255251
C        -0.10856562376720   -1.43696647132001    5.27655993734327
C         2.38959770532873    1.90409545249353    3.69125852719571
C         0.38184025686358   -2.75072046568110    5.41409869669119
H         1.31065103864069   -2.87829117922444    5.95136998357372
C         2.74716818704229    1.99936044594161    2.33128832452493
H         1.95073530267342    1.92615663397546    1.60453599674651
C        -0.27366263205017   -3.83241837967640    4.87483973938472
H         0.13873270978051   -4.82485972516069    4.98676849766415
C         4.05272778990515    2.15989703616252    1.93156197994897
H         4.29263423001676    2.21650695178538    0.87959087070292
C        -1.47216506876457   -3.65076155054503    4.18680516714076
H        -1.99074642923590   -4.50113461898094    3.76856399280704
C         5.06745753116079    2.25507016847705    2.88270903567458
H         6.09248807714233    2.38909884378685    2.56935781420592
C        -1.98814715356836   -2.38639050689974    4.04410161782314
H        -2.91907142758522   -2.24138638110590    3.51192330147303
C         4.75624448006647    2.17778012874988    4.21764607691099
H         5.54103412136494    2.25317147836506    4.95885272223376
C        -1.44220264858643    3.42939461757643    5.03661235049478
C         0.61879138374833    1.49805137856593    8.40447955603612

