39
CSD_code = YIMQOA | q = 0 | S = 0 | Stoichiometry = C16H17BrN4Pd | MND = 4
Pd       12.41438000963036    5.15613344975411    5.99783383446463
Br       11.23211667855634    3.01589205153892    6.22820419375380
N        13.84375825871210    5.81997189627488    8.46680123790971
N        11.84122547508362    5.30495869726335    9.04576774423548
N        11.98756551344576    6.30356888658279    3.33702279066994
N        12.56513056252560    4.25902399826951    3.02667457187857
C        14.51238485746168    7.20289410571269    6.59278748418907
C        15.18311320275918    8.40995764413171    6.46518314188330
C        14.75008814460529    9.34949642637695    5.54565734839561
C        13.64343295835413    9.08341523518193    4.75801422783015
C        12.96865539731051    7.87956602174460    4.89333653443482
C        13.39212245792339    6.91607953798418    5.81061470117036
C        14.95878252673317    6.16923998781709    7.61194070886411
C        11.76612680365967    7.55907153096299    4.02316497630839
C        12.65330948550572    5.41618723889719    7.97994167871428
C        13.78156345335956    5.95482640150706    9.82477459958020
C        12.51985659017771    5.62230498295009   10.19145110906936
C        10.45502379028854    4.92277817037384    8.98784991486509
C        12.32483567414792    5.17072516404557    3.98539307024581
C        12.01068581050697    6.10389516310378    1.98591323144818
C        12.36751616072717    4.81114181753690    1.78985139813720
C        12.98163072726051    2.90248027556432    3.26648655038367
H        13.30382569495723    9.81763340405008    4.03962056321137
H        10.08404542471362    5.10022632536941    7.97387975513470
H        10.33776977174806    3.86072879700646    9.21470668414958
H         9.87595651848944    5.51343910684525    9.69764772015800
H        12.05974375314395    5.59275371877937   11.15775271186870
H        13.70583110607584    2.59677096083535    2.51184007310617
H        13.43867269381396    2.84496612607743    4.25864496770210
H        12.12415315406036    2.22638396655151    3.24505892570286
H        12.49927352553075    4.25408596760165    0.88505129034561
H        11.77333655480871    6.87574167501698    1.28252822569897
H        15.27436609972874   10.28801870980244    5.44310160413738
H        16.04801520145549    8.61735824653156    7.08118091418381
H        15.77298125638961    6.55035986891355    8.23244323439507
H        15.30330397023635    5.26276470381625    7.08986975023773
H        11.59351588994224    8.34141533572111    3.28067975206054
H        10.86953521653011    7.46412477340424    4.65575733325665
H        14.61966962963922    6.26541963010247   10.41467144621979

