87
CSD_code = YIMQEQ | q = 0 | S = 0 | Stoichiometry = C42H44Zr | MND = 12
C        11.98320019704310    5.18241479332948    8.26106979734572
C        12.58573397101916    6.48361260228386    8.71625262288106
H        13.61901545853515    6.32032048283653    9.03576398728728
H        12.03544634972825    6.87844309045455    9.57811871064465
C        12.55066798558722    7.50311983456436    7.56523125998822
H        11.54179009536820    7.91128550428122    7.46035662200064
H        13.21958920416379    8.34084684358639    7.79264776080480
C        12.96711267739356    6.83880443913933    6.28141955562314
C        14.17968907103344    6.13250175558366    6.08255477590218
H        14.99184754904700    6.05325371279145    6.79872396218961
C        14.25927338612166    5.78516889840765    4.70990304186567
H        15.14254035264447    5.42450246521949    4.20244865794164
C        13.09030960456525    6.24399181587264    4.07106993726212
C        12.26597781214946    6.84947196468547    5.05138538532331
C        10.99410616701358    7.58521246731095    4.71449519793966
H        11.15570024818168    8.66274245532312    4.84601025024985
H        10.16930182372144    7.29748746906733    5.37935377860649
C        10.59587764810920    7.31669896161169    3.26025856277187
H        10.18437273126992    6.30822045621138    3.16762833130619
H         9.81714650490314    8.02190307108140    2.96095757579406
C        11.80388459189687    7.46052865669234    2.33530041671043
H        12.26976831141645    8.43245001349440    2.51370434049147
H        11.48072648701145    7.42751466749860    1.29306445031356
C        12.83241598000597    6.35460997020212    2.59232414512489
H        12.47102605759321    5.41441430481843    2.15900469418977
H        13.76833303937823    6.59644973051980    2.07940130826301
C        10.46926152420451    3.65355404339530    7.47264232375059
H         9.51581441039360    3.21514897616540    7.21370591622903
C        11.57523414895819    2.94528358590721    7.98404711946492
C        11.67835292794441    1.47799817098184    8.29666252905771
H        12.09098077022469    0.89783304621454    7.46278221722169
H        10.68292819310268    1.07620177957701    8.50714791609696
C        12.58117019739178    1.30394554427759    9.52178884525901
H        12.09089703729510    1.74404373002484   10.39302749851641
H        12.73686367481741    0.24167658886406    9.71970352792211
C        13.92877706820136    1.99042297303948    9.30479624530212
H        14.38834485892845    1.59522192735983    8.39556098301045
H        14.59869549494127    1.75425622718768   10.13457631415046
C        13.77322340050754    3.51368749262576    9.20186971098091
H        13.69606795245721    3.93034257062647   10.21373892531051
H        14.67562058133222    3.94011081604091    8.74312325163426
C        12.53105831425483    3.88881252510715    8.43211438703498
C        10.72385380143518    5.03988109781116    7.62481487018369
H         9.99441912087203    5.82949929214553    7.47515799724568
C        13.61560875340429    2.62332900487256    5.55816536559127
H        13.63643415073831    2.06128370731811    6.50690476633556
C        12.96459137016995    1.69755936452556    4.48164053097633
H        12.53961706669621    0.80088385748484    4.95163825635962
C        11.86280355049990    2.35925805485149    3.60943215139049
H        12.28890252156896    2.56881307124454    2.61955623753444
C        10.64924325827068    1.40364391193787    3.44704217713424
H        10.91646811018588    0.35935304169611    3.29414734244067
C         9.84079332751049    1.74579140674186    4.70596618997709
H         8.87622943182739    1.23710199294229    4.73722493757872
H        10.39480483384718    1.55900467999635    5.62702566449309
C         9.72155660657869    3.23696269729377    4.36588229129616
H         9.12114052151693    3.86790694339256    5.02882026300298
C        11.21513931094117    3.65122308314631    4.20483152859392
H        11.22468406530554    4.41402262675081    3.40773960650695
C         9.78649368870826    2.01530312128786    2.38335180337175
C         9.20188620657586    3.15118333403876    2.95635062869460
C        14.17484419831978    1.28860538935190    3.59797813602079
H        13.90320605730074    0.84399150314949    2.64199789392890
C        15.06362952969293    0.45468145921659    4.47250929172191
C        15.64810562905396    1.33375435600850    5.39238685883695
C        15.09894360272512    2.70054930200449    5.08794257099000
H        15.68922374810135    3.52572796299985    5.49697880541896
C        14.95853286716456    2.60784536094400    3.56327276246880
H        15.91764630670163    2.51473572904847    3.05196803783541
H        14.38229149879504    3.43003170225139    3.13460709789822
C         8.39782033443622    3.98275308474175    2.20987676567514
H         7.94669506173130    4.86532261203014    2.64218340373178
C         8.16393666808245    3.65065267821055    0.87899906662929
H         7.52313994207877    4.28008742100604    0.27827143478557
C         8.73909197027149    2.52596253350026    0.31518520835091
H         8.54229964674364    2.28846092663617   -0.72027806441964
C         9.57087330623604    1.69754978749549    1.06347930705652
H        10.02537035932008    0.82554349727995    0.61531947972754
C        16.47088087069473    0.86511345329058    6.39179847509131
H        16.91878433310539    1.53674663857876    7.11123095183174
C        16.72568063616323   -0.50172865789785    6.44668762184368
H        17.38105451584810   -0.89063481039727    7.21280840078129
C        16.15209537815717   -1.36877452637761    5.53398624193652
H        16.36513813064020   -2.42612195489085    5.59659693304519
C        15.30050587953701   -0.89783171994873    4.53832695101659
H        14.84675815603051   -1.58147011160289    3.83506860516185
Zr       12.39173781656052    4.42743166962897    5.90758831416344

