75
CSD_code = YIMQAM | q = 0 | S = 0 | Stoichiometry = C34H40Zr | MND = 12
C        -0.76675970059688    5.93752680359075    2.05890096998370
C        -0.31108145631835    7.27649248967236    2.57026974274851
H        -1.01123363561944    8.06093217562783    2.26067609910573
H         0.66594050835279    7.52364658498583    2.14611290330961
C        -0.21425263599656    7.24205803735899    4.10407393570804
H         0.37951121422834    8.09313181103589    4.45665998550682
H        -1.21322401590286    7.33805727683050    4.53761067271152
C         0.41424297581181    5.94937164681803    4.54647041521579
C         1.65618143684899    5.44805369249392    4.08401339635625
H         2.34461949637063    5.96792132812670    3.42483883429251
C         1.95669429856801    4.27651335385744    4.82556022212837
H         2.91935784565440    3.78633786595034    4.86052131464750
C         0.88920288842986    4.03631821084024    5.71646517400413
C        -0.08211195958632    5.04607440218771    5.51393472767060
C        -1.30203961500138    5.15944909984474    6.39063424784124
H        -1.62223982128042    6.20154927583376    6.47649697546441
H        -2.14337022212429    4.58104698293206    5.97859667416867
C        -0.95309801433492    4.61379407116399    7.77853796630168
H        -0.18062275678168    5.24391806011868    8.22484818104982
H        -1.83316324411788    4.64500392485263    8.42472257658935
C        -0.43926897595408    3.17935009037816    7.67633505355609
H        -1.20106691881410    2.57006016945594    7.18296443144152
H        -0.29147980986448    2.76779916404144    8.67721370001386
C         0.88343406334221    3.10749621948000    6.90281649392321
H         1.69731909845138    3.41357516459330    7.57154644536935
H         1.08801288054164    2.07169115512433    6.61124101969405
C        -2.06186445445401    4.07845182424250    1.70930838664216
H        -2.94542082385143    3.45717916533541    1.66534086424155
C        -0.99991281349540    4.04958192038708    0.78008973445237
C        -0.89769037573227    3.20002652540863   -0.46026709068060
H        -1.78608096204769    3.39551942844735   -1.07304206332520
H        -0.90648359538730    2.13046771174429   -0.22456316845644
C         0.35227714307946    3.53433911295302   -1.28521343658344
H         1.22363492660977    3.01250648079128   -0.88121414494444
H         0.20936050677500    3.18078357373191   -2.30870948803448
C         0.64129606489703    5.03372516420420   -1.29392774995483
H        -0.23754330477872    5.56934256092122   -1.65961745902310
H         1.47361102230136    5.24388279904244   -1.96923727487399
C         0.97314619875175    5.52654952740978    0.11791026407096
H         1.13626391290025    6.60762108324481    0.09953088397791
H         1.90631598851504    5.05097670646885    0.45564123149419
C        -0.17850032802298    5.17643127947244    1.02333751471101
C        -1.90994102852451    5.23568434117769    2.51575324855194
H        -2.64583534456109    5.61021222898693    3.22053266285514
C        -0.94645305558289    2.02737361710668    4.11658906605724
H        -0.84688098663407    2.09497881788269    5.21239925326323
C        -0.21980623689994    0.72273539485575    3.66424301601511
H         0.31924599994674    0.27229026329091    4.50751224052135
C         0.77257388638569    0.88061893105610    2.47969188882063
H         0.31677244242409    0.43780142273968    1.58485597165662
C         2.10764496149450    0.14114960291685    2.79310267327507
H         1.97918724065389   -0.83195800485446    3.26354209631560
C         2.83771797790675    1.22202516173803    3.59688378118120
H         2.28799494922778    1.53623467774211    4.48529395681374
H         3.85545877494803    0.93421856647465    3.86360980334517
C         2.78305110297521    2.24097816438149    2.45411791753837
H         3.30381117586196    3.19370144890960    2.59317879771611
C         1.24832401527343    2.33732019728926    2.18751778362148
H         1.14255558107091    2.50810510550486    1.10331794238995
C         2.90364748722834    0.15007050708272    1.51770466047866
H         3.02118358740695   -0.70171061776261    0.87252631934685
C         3.31098510723822    1.39832005397556    1.31787250420659
H         3.83713193122415    1.79571930783876    0.46685722925191
C        -1.40340494216425   -0.20763828857927    3.26369046293176
H        -1.10940944197759   -1.07946360345191    2.68210221676413
C        -2.15831439792771   -0.49239951111932    4.53247587516466
H        -2.10334019710329   -1.41967987666055    5.07347262527437
C        -2.78127717757596    0.62841633448971    4.87825018344973
H        -3.35124595788277    0.82144704701046    5.77088576715164
C        -2.44361496122853    1.67857280173778    3.84709404895541
H        -3.13352911639267    2.52824389478140    3.82218023676170
C        -2.33764520501297    0.80460856516173    2.59336925758320
H        -1.87562254042686    1.31481320638080    1.74756093062739
H        -3.29122376569521    0.36610158576054    2.29644740414197
Zr       -0.00915489604342    3.82245473515265    3.23203901545462

