87
CSD_code = YIMVEW | q = 1 | S = 0 | Stoichiometry = C42H40IrN2P2(1+) | MND = 6
Ir       -2.32222306605464   23.36302144695923   17.86206169505401
H        -1.93601993956616   21.88286398415738   17.82911652288895
H        -0.81678336535820   23.62101754448022   17.92955905982502
P        -2.42372454015551   23.35667755623344   20.20264086661479
P        -2.31595349807689   23.45872917775213   15.50773651157717
N        -4.52399033742527   23.07935946720101   17.71356507718075
H        -4.76708003816438   22.65072624113763   16.81873341232949
H        -4.87129040731736   22.43459747784381   18.42718030781311
N        -3.05092253895745   25.47817568157296   17.97981943951893
H        -2.70263793691724   25.95362348136763   18.81431059238673
H        -2.71169371121534   26.02937821976400   17.18767381721563
C        -5.21534344392762   24.33418712844433   17.85197423293751
C        -4.49078938997456   25.51407018897315   17.98280923085334
C        -5.16645768730587   26.72106485408609   18.11986668255993
H        -4.59786875918052   27.63523082491655   18.21873777500631
C        -6.54627903068866   26.75667872238565   18.13212385380438
H        -7.05846155139818   27.69947420864426   18.23951276654284
C        -7.26815818605457   25.58065962662694   18.00626466525786
H        -8.34624135177125   25.60151021696529   18.01634330397818
C        -6.60469993850599   24.37837767557433   17.86672554449220
H        -7.16218891870084   23.45718664324597   17.77060695528574
C        -1.73453256707152   21.95933137426277   21.14693938312762
C        -0.58509851233896   21.35443395631182   20.64729648862103
H        -0.19614286592003   21.67926899816731   19.69192026467821
C         0.03134549518106   20.34465862249439   21.36315733868196
H         0.92120879526021   19.87561695899298   20.97244446484496
C        -0.49425428031913   19.93411075763899   22.57790704445817
H        -0.01544885713385   19.14431738940802   23.13608406262943
C        -1.63814357599078   20.53556472197429   23.07696108739538
H        -2.04926915509791   20.21539052126635   24.02259177124127
C        -2.25795243356134   21.54980961420197   22.36950940038891
H        -3.15254478639806   22.00813781309738   22.76764837573966
C        -4.15486512480751   23.45181325783786   20.75756186201318
C        -4.92091080672265   22.28602202463133   20.72902753716730
H        -4.43588625569092   21.34172325852206   20.51146566853247
C        -6.27550273679825   22.33378534435365   21.00524835179944
H        -6.85922713072412   21.42520620662583   20.99698226182795
C        -6.88172860263393   23.54700727785680   21.29371963617263
H        -7.93814673512488   23.58440208074773   21.50951791970441
C        -6.12975614703157   24.71012103509142   21.30872808801160
H        -6.59998606117268   25.65543337390483   21.53306640570250
C        -4.77464724959486   24.66618989977091   21.03343984740637
H        -4.19399646036847   25.57871314728081   21.05201464008723
C        -1.63028726830579   24.73775871683689   21.10011563838541
C        -1.94381033324740   24.98004990385283   22.43569245925477
H        -2.68673938346157   24.37579996974738   22.93586950642772
C        -1.30636696480296   25.99469552353851   23.12430799970848
H        -1.55602091906859   26.17829989903369   24.15831699162641
C        -0.34546934989482   26.77020743143501   22.49386773924646
H         0.15135040339695   27.55971883318261   23.03623355823178
C        -0.01752998413193   26.52292961435687   21.17166645483537
H         0.74004651218770   27.11578066957046   20.68157262660266
C        -0.65542255242043   25.50927274016215   20.47725048962105
H        -0.38558682504925   25.29585642560344   19.45182897778983
C        -0.73687902462374   23.63175202678471   14.60483048388078
C         0.27665412018396   24.38464299329656   15.19420479876999
H         0.12970258828853   24.78857877099170   16.18660239298397
C         1.47188063458492   24.59093815429390   14.53173258202576
H         2.24988307711209   25.17831246024806   14.99556008881205
C         1.67340085611545   24.03636517442049   13.27808818680760
H         2.60726957751395   24.19321169871737   12.76076665946630
C         0.67851920447619   23.26892857994496   12.69693669602753
H         0.83719435585759   22.82254856792838   11.72701457400370
C        -0.52304328731458   23.06514887001095   13.35313891999479
H        -1.28358730651989   22.45582520755979   12.88874278617352
C        -3.17502087293993   22.13680781098376   14.59094694486892
C        -3.70743284884611   22.36581256012304   13.32204251693352
H        -3.64051680483274   23.34825790534523   12.87462288062424
C        -4.32147434270930   21.33656186797290   12.63261099361627
H        -4.72965588676774   21.52054022899760   11.65025219711782
C        -4.40722288342350   20.07237154807952   13.19552141857853
H        -4.88598618379379   19.27255496193998   12.65198748372883
C        -3.87314420888871   19.83731815003796   14.45151165448628
H        -3.93096038880663   18.85232323809961   14.88911270845670
C        -3.25865912120858   20.86446485384414   15.14713235374540
H        -2.82857605537677   20.68667089068045   16.12344052954520
C        -3.23595467800609   24.94496050189760   14.96598661959293
C        -2.57535915275284   26.16371176774767   14.82445641287928
H        -1.49637715238140   26.19731531293100   14.89566077574898
C        -3.28898631407157   27.32117927770482   14.56392400912870
H        -2.76473418920292   28.25724854458420   14.44236326221100
C        -4.66978990867320   27.27937169145838   14.45785871089215
H        -5.22529960090723   28.18201049466348   14.25687754850974
C        -5.33484344654081   26.07243890394861   14.59992921455691
H        -6.40989081106718   26.03188274537216   14.51109605285295
C        -4.62474914073279   24.91495800298956   14.85923714209476
H        -5.15653044812561   23.97704850630079   14.94909374572227

