113
CSD_code = YIMWUM | q = 1 | S = 0 | Stoichiometry = C58H49BrOP3Ru(1+) | MND = 5
Ru        4.53263749527290    3.85663317012818    1.49637796357436
Br        4.44964555474136    4.62858569536612    3.79523432607736
P         4.30687005744617    1.68487380223725    2.27636143886061
P         5.11083973219616    6.01459634209425    0.85159631202418
P         0.16473087526073    3.68688194772917   -1.79403188556372
C         5.00945134479740    3.20932242827968   -0.13938435382618
C         2.57395348844648    3.96992439860129    0.96020286416151
C         1.87841535918954    3.14973747213917    0.18797431847600
C         0.38922983989232    3.22308890257967   -0.04452464097170
O         5.34344082943160    2.80973148912448   -1.17010159756201
C         3.40070127103806    1.37101647394107    3.82104164289246
C         3.89203011778607    0.57871017215262    4.85032758617717
C         3.13588323893385    0.39985174038813    5.99610798923855
C         1.89893764381914    1.00848445875406    6.12130466788128
C         1.41287240311855    1.81127477427053    5.10107151854651
C         2.16263781695681    1.99694151663860    3.95654944984221
C         3.59542187669887    0.46183861462809    1.12820318417406
C         2.27697433872958    0.03136819321369    1.23501769572248
C         1.73171651039342   -0.78403880959423    0.25858629612531
C         2.49339021560980   -1.17443129636224   -0.82994689258354
C         3.81153159872486   -0.75933352518715   -0.93470963249746
C         4.36003652628471    0.05648427477136    0.03593301442892
C         5.97436254948620    1.03624475603721    2.57244667454715
C         7.00407743186499    1.96154839955135    2.71471442032770
C         8.29560348616152    1.53644762892320    2.96528610850482
C         8.56333797668418    0.18158009436149    3.07093667973065
C         7.54282906771054   -0.74603345856489    2.92133956937350
C         6.24960400414428   -0.32590224440206    2.67275282068543
C         6.69921058126930    6.29329231716851    1.68557579332241
C         7.69072533365823    5.34379835712191    1.42762843990703
C         8.90150807684787    5.41356752852077    2.08881177594762
C         9.12095115559986    6.41761891593204    3.02067038757749
C         8.13219374379856    7.34985350336188    3.28819001082893
C         6.91741774530375    7.29169319308295    2.62612868054391
C         5.54345647228350    6.19566178476618   -0.91007500120204
C         6.74340871532372    6.73182057807717   -1.36321160086967
C         6.99575436820029    6.80408306167066   -2.72220201267523
C         6.05924248768872    6.34139961713100   -3.63109542380099
C         4.85854565409600    5.81318800939565   -3.18328728516862
C         4.59991335119696    5.74634391446217   -1.82807032809459
C         4.16614703536251    7.54573363341987    1.14177455490248
C         3.15002736490917    7.57565168624427    2.09103746441579
C         2.44628210280948    8.74617585674759    2.31664875125710
C         2.74929100405584    9.88939129422794    1.59582794014431
C         3.76237722097585    9.86295927109745    0.64891864859331
C         4.46916674122188    8.69766456183707    0.41849608251189
C        -1.57935442199792    3.68920513740720   -2.27115519086923
C        -2.58547457628536    3.58114901511958   -1.31676478384195
C        -3.91043965071846    3.61064284102038   -1.71615030180999
C        -4.23077367062347    3.75219953424873   -3.05662528261562
C        -3.22682652966623    3.86483444380620   -4.00730263701468
C        -1.90097821296630    3.83601495865759   -3.61928613290454
C         1.04825888730761    2.45759661618811   -2.76992674598417
C         0.37529545437909    1.32853812109553   -3.22875362049870
C         1.08242889890798    0.33239028170450   -3.87721481251392
C         2.45193820961013    0.45431171266966   -4.05492733259840
C         3.12126066089285    1.57659284777898   -3.59201540282624
C         2.42398302399366    2.58275421841896   -2.95014822704165
C         0.85157707488466    5.32876277102976   -2.09206550331743
C         0.94820387911294    6.26020394819911   -1.06245834675249
C         1.45557276976638    7.52004793929310   -1.32368872825673
C         1.84510689997279    7.85951010729179   -2.60908217708011
C         1.72354577526475    6.94170619495471   -3.64092462964087
C         1.23119968355175    5.67493328633717   -3.38731009247098
H         2.02824137324477    4.77403540344749    1.47685949364975
H         2.36836068830685    2.33410244177397   -0.33248638566513
H        -0.08185831956725    2.24273705777481    0.09418036414243
H        -0.09512130337644    3.95660647870405    0.60534176047169
H         4.86396782169989    0.11400059915683    4.76776897884507
H         3.52096568493514   -0.21215763825194    6.79784858301954
H         1.31808816981490    0.86918493314507    7.02031331679770
H         0.45615677226690    2.30104216811326    5.20693618643131
H         1.81219188546641    2.64719535352546    3.16178641751746
H         1.68158030062004    0.33170264492776    2.08598695161189
H         0.70882111696273   -1.12015358767220    0.34983244414063
H         2.06428502438257   -1.80925128388305   -1.59055540728351
H         4.41331512048527   -1.07350465550073   -1.77425056976088
H         5.38967303118195    0.37838889670702   -0.04532419675424
H         6.78962288537018    3.03020197985391    2.63610672479914
H         9.08932065565482    2.25904350886263    3.08269489125452
H         9.56988990472016   -0.15441180753330    3.26846161958818
H         7.75749708911274   -1.80121725536199    3.00135812791417
H         5.45138514575844   -1.04562712104946    2.54825776332228
H         7.50475091677399    4.56486111902319    0.68873332117327
H         9.67276719984323    4.68600593953640    1.88111365685145
H        10.06410018995797    6.46764197978873    3.54328208957502
H         8.30351114006855    8.12312852832912    4.02145444279628
H         6.13806023280232    8.00783176723376    2.84528554187929
H         7.48175676999111    7.08638400448248   -0.65706058084398
H         7.93011963665875    7.21765176429273   -3.07114895124192
H         6.26658322037280    6.38822402217035   -4.68943493166458
H         4.13252370796150    5.44723219230181   -3.89471086665998
H         3.67062590336554    5.33390294245861   -1.44826358533959
H         2.92698066973691    6.69332956199460    2.67353819190536
H         1.66579413283213    8.76682555460320    3.06251852742611
H         2.20205624367988   10.80285478075657    1.77424977864702
H         4.00513629399412   10.75599409834230    0.09219379395910
H         5.25953853564839    8.68094436971405   -0.31857571462247
H        -2.33825821269120    3.46960921474271   -0.27115646013425
H        -4.69359003523446    3.52273156089807   -0.97904701603617
H        -5.26508615522355    3.77442730698271   -3.36247283501365
H        -3.47907891608261    3.97436319386252   -5.05067090568691
H        -1.11280703649824    3.91741166239906   -4.35485639616657
H        -0.69217206544887    1.23695622508153   -3.08016615845027
H         0.56422656366841   -0.54174001610166   -4.24063155014815
H         2.99833599473676   -0.32900913922859   -4.55725275616504
H         4.18818138359110    1.67068839335117   -3.72033113093514
H         2.94416997428609    3.45468364004485   -2.58169674648568
H         0.63945633050872    6.00594582462275   -0.06076932468474
H         1.54567623722271    8.23670873329882   -0.52215455781639
H         2.24124580599517    8.84293419980512   -2.80794968607571
H         2.01731052678893    7.21324329474639   -4.64327880415323
H         1.15379580266059    4.94779669245762   -4.18459191834935

