67
CSD_code = YIMXEZ | q = 0 | S = 0 | Stoichiometry = C27H29ClN3O4PPdS | MND = 4
Pd        4.98761755264968    2.84970476281224    2.04394989693558
S         4.67694600816337    4.01126125296320    0.05264647153283
Cl        5.69902607013117    1.75429478125058    3.96571078264830
N         2.84448218564600    2.60782987386049    1.89015144878823
N         2.25180762063407    3.39947410800346    0.97861575772179
N         2.30656221156343    4.54049387939161   -1.01811349193619
H         1.31801468644508    4.71069140917452   -0.93610971035067
H         2.84741044081806    5.21157870146949   -1.53654965126377
O         0.89201708528972    6.35431175851393    5.08857428008086
O         2.55141947958233    7.63652108335631    4.18184293293870
O         2.10489104171274    4.37292169933318    4.91283570021494
O         4.88837635584775    4.98233634640156    3.71098557406300
H         4.87546239794545    4.43366605308900    4.51570055920353
P         7.11454840666346    2.39379020286338    1.56631034385280
C         0.63523334262157    8.74616704266183    5.10508626563920
H        -0.43926788788030    8.67125042558340    5.23585501165141
H         0.88182006115702    9.64989306631494    4.55725557913594
H         1.11261036301378    8.77821390938149    6.08059806040322
C         0.45903795988502    7.43782381673644    2.96025509162891
H         0.86391955859167    6.60956452730470    2.38477377829707
H         0.62977069384236    8.36104189963734    2.41503356621679
H        -0.60602780751554    7.28340879650584    3.10228148210155
C         1.14090311121344    7.52733902762750    4.32901084083621
C         2.08055771820127    5.67895186736505    5.38584304089457
H         2.20515935528503    5.62281172653807    6.47398642749778
C         3.17294215185423    6.46735475816355    4.62397051005483
H         4.03895898109325    6.73660954484697    5.23632871394314
C         3.59840928000249    5.50052015093742    3.49316104097714
H         3.63501940911619    6.01617567339013    2.52850301623375
C         2.50007275724504    4.40072409925350    3.54782339242427
H         1.64894230340326    4.69191727225331    2.90990172052634
C         2.96367713388199    3.03230745888773    3.11626967786451
H         3.07592845552816    2.29122730216098    3.90588799313965
C         2.92168057644848    3.95624781629001    0.04795632362341
C         7.10488106873811    0.57656549449660    1.52344053953996
C         5.95129714914875    0.01567303800088    0.96833939634157
H         5.15549764510729    0.67256693391828    0.59136454927967
C         5.80997168907309   -1.35712369001307    0.91056063101435
H         4.91725725096170   -1.79103598591468    0.48514257798035
C         6.80963928470446   -2.17606541893128    1.41548744956210
H         6.69528944645598   -3.24928778070585    1.37982393584166
C         7.94298401356998   -1.62049712242350    1.98331594017097
H         8.71030617749939   -2.25987734877222    2.39446878029695
C         8.09575592116316   -0.24456392305497    2.04119083299377
H         8.96729341354398    0.18535580406756    2.51224184284575
C         8.47544224490182    3.00829441460822    2.58921875580517
C         8.21259158816904    3.90508668748544    3.61675254954545
H         7.18859424284894    4.20359132332451    3.80551952900259
C         9.25700050097510    4.40971609787336    4.37116736114109
H         9.05607945679709    5.10523807929021    5.17227732722600
C        10.55929201296827    4.02574144426332    4.09704155232559
H        11.37337707573656    4.41394678575010    4.69119672126580
C        10.82448414357074    3.15649609123827    3.04991390051339
H        11.84299839342726    2.87546279320513    2.82501999386326
C         9.78756329978186    2.65466745439060    2.28576092866672
H         9.99017475796011    2.00328644688417    1.44604651166512
C         7.71631767828914    2.86398949414233   -0.08889652902411
C         7.92540146773299    1.95487422588880   -1.11742562831299
H         7.74439849041554    0.90115285287312   -0.95540046561338
C         8.36555550337005    2.40434648909006   -2.35087095561319
H         8.52800494688863    1.69689278709779   -3.15093865537417
C         8.59174903624869    3.75353205635599   -2.56189864438693
H         8.93035608390380    4.09865818602995   -3.52765031796215
C         8.37701071773375    4.66365844771194   -1.53779739985245
H         8.54593031306219    5.71704923350697   -1.70534601653734
C         7.93931615895125    4.22166714218291   -0.30541907108125
H         7.75005976613832    4.91941537192528    0.50161964956557

