75
CSD_code = YINGIL | q = 0 | S = 0 | Stoichiometry = C36H30Cl4MoO2P2 | MND = 6
Mo        0.29622981958187    4.15566055331726    8.46790860717648
Cl        1.44715579134537    2.39855281366552    8.98413890884890
Cl       -0.18354190025999    3.44105119423646    6.25120800620160
Cl       -0.46857813045091    6.15652304113334    8.17028244568938
Cl       -1.77711141998951    3.23674005499690    9.17960117051195
P         1.58398957721667    4.47191506928269   11.72987889305909
P         2.90704902826507    6.31260312350501    7.46946404794644
O         0.72858657032033    4.96494618380665   10.61685568030376
O         2.39278923151995    4.96053458566942    7.81621573501583
C         1.07339563715331    5.29867129361066   13.25862800027383
C         1.55943363175764    4.88994809341364   14.49454028645295
C         1.13322479103269    5.53225233573958   15.64240333281091
C         0.22302293880777    6.57522286366497   15.55694579118277
C        -0.26767908897961    6.97536554587676   14.32443780030263
C         0.15534074775971    6.33543299846252   13.17280085249672
C         1.40159979770310    2.69535649664880   12.04667925798066
C         2.45622200054849    1.88831875524061   12.45022567852246
C         2.22917437578316    0.54525580326675   12.69454695987777
C         0.95865900630985    0.01486077592538   12.53923508318269
C        -0.09579599334808    0.82602174014395   12.14867967639737
C         0.12091942140066    2.17023931318255   11.90970644193657
C         3.35891920764857    4.82195218814818   11.48459910583376
C         4.04292133430548    5.70135092119245   12.31294678517327
C         5.38310920067208    5.96205377188377   12.08739173637202
C         6.03946178037627    5.36067584861165   11.02696853767572
C         5.35591219698378    4.49128021356896   10.19210823467043
C         4.02072365933858    4.21375128159862   10.42329216206972
C         1.79551193034130    7.24951720615700    6.38444000734841
C         1.14867989562069    6.52293014129340    5.39024978957701
C         0.29406041422161    7.16947213787685    4.51709727272739
C         0.10108899563035    8.53819008482527    4.62585055697926
C         0.76304002691077    9.26246774549682    5.60410861931369
C         1.61423360504010    8.62165866847998    6.48725121081902
C         4.45142796597882    6.12247297292528    6.54251202536304
C         5.06016228866051    7.20858848095217    5.92552065428175
C         6.22870192447883    7.02096142446994    5.21055141375606
C         6.78370963240219    5.75412548288609    5.10755970173868
C         6.16881870681870    4.67022371251953    5.71338657505607
C         4.99960473796847    4.85283997918099    6.43050202458113
C         3.26200483468027    7.34470681000616    8.93288005840330
C         4.54795499999780    7.77738713951284    9.22629762989080
C         4.77669964339081    8.54921792944871   10.35204412916589
C         3.72858257618549    8.87791191561491   11.19488149163628
C         2.44618556887649    8.43617351660209   10.91081878578423
C         2.20933534983868    7.67796803200909    9.77867943363715
H         2.26364139267298    4.07124547241501   14.54776543327773
H         1.50613463980738    5.21851440116669   16.60622558512150
H        -0.10911698369401    7.07223887974969   16.45637499689065
H        -0.98302138470562    7.78211530289874   14.26345189544739
H        -0.22197414362219    6.61587348607411   12.19956620718998
H         3.44781330935042    2.30682567911284   12.55535142208003
H         3.04760858229240   -0.09068493554842   12.99888463476983
H         0.79091285343058   -1.03670734937756   12.71938899366611
H        -1.08446937461464    0.41197477574942   12.02269389347074
H        -0.68911622548644    2.81482656858926   11.59040733145186
H         3.52769743423337    6.17736218829179   13.13508391869002
H         5.91456306744843    6.63743355835048   12.74155275181322
H         7.08470203583296    5.56854833989321   10.85134077426620
H         5.86725276254927    4.02248886745065    9.36445347117475
H         3.48599193404226    3.51957692816098    9.78913675105920
H         1.30060755033417    5.45227296861613    5.32707570498030
H        -0.22506859458342    6.60397942226962    3.75852066847413
H        -0.57127864930415    9.04265786423227    3.94778107187013
H         0.60963192815555   10.32869385470122    5.68473582018047
H         2.12335810016568    9.17787631237954    7.26234595108101
H         4.61245137728334    8.18951152199297    6.00635797116935
H         6.70686260808229    7.86075603258273    4.72825272562634
H         7.69524829412943    5.61206657009853    4.54607904194726
H         6.59867451567673    3.68373805810864    5.62148924408967
H         4.48982822735673    4.02370531617827    6.90054354592924
H         5.36726175110454    7.51317026169750    8.57303576805939
H         5.77675703045649    8.89360778127293   10.57089865856483
H         3.91086970116429    9.47876455813180   12.07370398121727
H         1.62840633510851    8.69028892785889   11.56885418197770
H         1.20803361558103    7.34612814683230    9.53872700647410

