87
CSD_code = YINLIQ | q = 0 | S = 0 | Stoichiometry = C38H42Cl2N4Ru | MND = 6
Ru       11.89469489406454    1.26885015157126    4.42768245300158
Cl       11.38550153143404    3.33416266829455    5.50294657427665
Cl       12.41088909756973   -0.69508528423681    3.11915712300265
N         9.43322106720870    1.36833684009020    2.66302328484290
N        11.10308645062165    2.33410662194213    1.69318770775214
N        13.16884773349195    0.70492213117857    5.99446452594166
N        13.84499160272654    2.19624316796564    3.74651952971672
C        10.58539673124196    0.12335275170960    5.26510178372028
H        10.37665752260826   -0.81010913899449    4.72917526253450
C        10.06372403147689    0.02632574567379    6.59119532402886
C         9.44648150116885   -1.17649907785716    6.99174060735653
H         9.39141338958263   -1.99439025359201    6.28720907925878
C         8.91921971919115   -1.32735252642485    8.25492204993238
H         8.45442778660647   -2.26177885212026    8.53795767270824
C         8.98218825900219   -0.28177728145184    9.16517334512552
H         8.56432199875411   -0.39796568593221   10.15507817381786
C         9.58379312477636    0.91186970146266    8.79570107774525
H         9.63244499005716    1.72913987689658    9.50123415023744
C        10.11981756639727    1.06688666077168    7.53483401620613
H        10.57000704094328    2.00714921240886    7.26108877982653
C        13.46112034139676   -0.58331457223987    6.20109465310771
H        13.01473480870358   -1.29818114762441    5.51995190818514
C        14.30139727406800   -1.01431561690809    7.20966944909477
H        14.50063074308271   -2.06830050535818    7.32292967528328
C        14.87218250981219   -0.08116392552704    8.06164234718750
H        15.52940505976662   -0.38565051232428    8.86200038924160
C        14.56882876893071    1.25423753848259    7.85332169867208
H        14.97880081607508    2.02604725610571    8.48579008508161
C        13.72233877334657    1.59999853655113    6.81593665553082
H        13.46130341415018    2.63877301509569    6.65389824369877
C        14.18625755114356    3.44940100050379    4.04228700652688
H        13.38991285532033    4.10891606371450    4.36095163852937
C        15.48662638621453    3.91835953958083    3.97759554875060
H        15.69632594269644    4.94454843030374    4.23578661627216
C        16.49407410430608    3.05687581946354    3.57953547371000
H        17.52098553030130    3.38767722733615    3.52030524409691
C        16.14375899597452    1.75545514160007    3.26108927575648
H        16.88439558036473    1.03904647257858    2.94121733059704
C        14.81850299398056    1.37161354973787    3.36016703582736
H        14.52537415543707    0.36039069156813    3.10613733185611
C         8.54195548755071    0.77212942574249    3.59632171228098
C         8.24986602880954   -0.59180477888465    3.49404569292065
C         7.33797486398941   -1.14487929756223    4.38182472024293
H         7.12029980718131   -2.20203067734283    4.31624888458082
C         6.71265218324299   -0.37879686504238    5.35272720763657
C         6.98176413802565    0.98159255629279    5.40025591070047
H         6.48231755846700    1.59237847345852    6.13853581619861
C         7.87167154740523    1.57915727102857    4.52250749513739
C         8.92085024661251   -1.45816641454689    2.47113057137112
H         8.90830598286908   -2.49817188592187    2.78873865406644
H         9.95553949892295   -1.15499765592866    2.32023871184647
H         8.40019486285742   -1.39941949868792    1.51421066603771
C         5.75903757539529   -0.99012082625126    6.33283253948122
H         4.78897652701621   -0.49736127776541    6.28045040742836
H         6.14193595836433   -0.86773325427575    7.34567338851162
H         5.62312796788527   -2.05086382847089    6.13753670534586
C         8.10495609554101    3.05380875064008    4.57226200052244
H         9.09834473722720    3.25857181250166    4.96991630522948
H         7.37435716934810    3.53504386581597    5.21663646496600
H         8.04614053374778    3.49849937620585    3.58029278509636
C        12.28608361178005    3.07805082060435    1.43567208347373
C        12.32048526425461    4.42777790387830    1.79636784704538
C        13.45951993648317    5.16449272643758    1.50357744263403
H        13.49748845833037    6.20620738149332    1.78977541539086
C        14.54327116729383    4.59645405941735    0.85245268878017
C        14.46518335483091    3.26578044132798    0.46834557700974
H        15.29718287100400    2.81768886105312   -0.05698808218140
C        13.34436961166468    2.49363216949713    0.73592680079178
C        11.16093438278933    5.06793200647732    2.49366150070484
H        11.34858512291220    6.12635112544567    2.65419511028877
H        10.99417338196796    4.59815085407848    3.46364682305206
H        10.24483297271731    4.96375057657719    1.91374932379389
C        15.78022248431836    5.39256900482553    0.56627250984307
H        16.59449102644341    5.05906109711039    1.21031471512211
H        15.61261866912135    6.45184155069383    0.74425371253527
H        16.09555250068456    5.25471452467688   -0.46649100653965
C        13.27973131944706    1.07360262183640    0.26970267995291
H        12.67659509153540    0.99934874947371   -0.63612939458373
H        12.83524269279322    0.43050574591417    1.02753292719331
H        14.27552897636508    0.70314588790960    0.03916531384847
C         8.89709942244125    1.68035998477073    1.33997208420741
H         8.04980989921250    2.36946195217714    1.43229807615545
H         8.54370308984341    0.77168386316497    0.84789147969067
C        10.09691035334252    2.30054780928019    0.63449328434471
H        10.45416325856017    1.68748974802285   -0.19867080290211
H         9.90390980394583    3.30958177262787    0.25770033186088
C        10.69815986147265    1.76698005821049    2.83562479084544

