51
CSD_code = YINLIR | q = 0 | S = 0 | Stoichiometry = C20H26Br2N2Ni | MND = 4
Br       11.85721237776946    9.96723534713250    4.76616228495073
Br        8.13782356799562   12.28505342180539    5.40117121172004
C        10.15799690180293   11.59280940270339    8.30958664986212
H         9.20389604072926   12.13157250778611    8.27351140491525
C        10.92498184818600   11.99425916898783    9.57510286182482
H        11.10609293596854   13.07002962326150    9.57487284676444
H        11.89162959785467   11.48311474279637    9.58922138727734
C        10.13479917599814   11.62763412196048   10.82753825639976
H        10.70161335053138   11.91803778773481   11.71352557709798
H         9.19401603193996   12.18182988428917   10.83475061223048
C         9.84353777205433   10.13268951097584   10.85852049472080
H         9.25566309809907    9.88531319308630   11.74358222647119
H        10.78236903625937    9.57714512916793   10.91373441843223
C         9.08341819927014    9.72377255852841    9.60266768294519
H         8.88535827198040    8.65093254219455    9.62807960723802
H         8.12256904441875   10.24404798195442    9.57020834654069
C         9.87949680372268   10.07164355053259    8.34006727360165
H        10.84458348987246    9.54810824568940    8.35912350299576
C         9.25748603713759    8.23610868828411    6.81486209223465
H         8.96167570940083    7.62694738357376    7.68067141258834
H        10.29584279006749    7.98972554763104    6.56152622067422
C         8.36379462989605    7.90182229360740    5.64985656552618
C         8.35144191185833    8.70387859344530    4.51687478348935
H         9.01125078912406    9.58191544079373    4.46446891241222
C         7.52803610191461    8.41724781869861    3.44627495925814
H         7.52684987662066    9.05676217889807    2.57627182199228
C         6.70481996474725    7.30418984108654    3.49279297221813
H         6.06075086524292    7.07321363026523    2.65759676829786
C         6.71206016201099    6.49096597846495    4.61234199152867
H         6.07230424369770    5.62163496413155    4.65381752877027
C         7.53254427593034    6.79067296770665    5.68593743893428
H         7.52854991402661    6.15481350162610    6.56028432101952
C        11.20882382556321   13.33626309367548    6.85060124557311
H        11.84260441526314   13.72932703259618    7.65506903342929
H        10.27266173429337   13.90003228760146    6.82109515921670
C        11.94733134528847   13.42596893639901    5.53701607253987
C        13.31830095571050   13.19601883463795    5.50093587386497
H        13.86025194778842   13.03633400117905    6.42333552965110
C        13.99051771182739   13.15669669738452    4.29331401461950
H        15.05300323188190   12.96666347678559    4.27684767574706
C        13.29885776810118   13.34157215310637    3.10774352753846
H        13.82213522832284   13.29361992958727    2.16463789020616
C        11.93783135537616   13.58965071132498    3.13376345693584
H        11.39683725048059   13.74646003197451    2.21204475127678
C        11.25884401477220   13.63185442479328    4.34266114400118
H        10.20738625615039   13.88663372040546    4.35551927195668
N        10.89873673203746   11.91288638448752    7.08350593877083
H        11.79649577788226   11.42045703013066    7.13282275807119
N         9.19688133034690    9.67239055200366    7.10912819048577
H         8.21095725578825    9.93169812611348    7.19549268295718
Ni       10.05387704700735   11.12784502701687    5.39526134822854

