195
CSD_code = YINMEO | q = 0 | S = 0 | Stoichiometry = C80H96N6NiO12 | MND = 4
Ni       12.34234066058599   12.34206383687770   32.24883294494884
N        13.60394777287022   12.98297870492636   33.45027422908695
N         9.39994704392656    9.73356191866652   33.95662428132236
H         9.92104762527762   10.47115925986518   33.49002037480521
N         8.25072485044190   11.50794178226969   32.15927070346989
H         8.13104341788816   11.84535293032699   31.21176979069527
O        11.61088046720972   11.16144934628467   33.51427738574595
O         9.57754853371391    8.31814364697496   35.74482646069644
O         8.57990206266602   12.23723084706459   34.29062245440205
O         8.56194774551552   13.71475159351381   30.29580643343398
O         4.72496205108644   10.22112952369692   30.20313293667137
O         6.22180581292566   11.86109568667622   30.47304204385638
C        16.32141123917901   15.63923321421782   32.83800593123729
H        16.83089622849416   16.38423634635366   33.45115284104880
H        17.07610550389752   14.94467730195295   32.46218232556707
C        15.31954710900663   14.86964468677306   33.69823459209758
H        15.87040852029659   14.37057177455887   34.49623339299220
H        14.60070512195092   15.55551326987687   34.15161960396676
C        14.58697610198053   13.85731642176077   32.81562887594391
H        15.33841420136155   13.19767499475101   32.35981991863190
C        13.73265751184482   12.64556225854593   34.68716482838663
H        14.54092671978266   13.08363749985308   35.27084186001009
C        12.92813277939164   11.72482964573865   35.40874891164128
C        13.20745250103890   11.52502650790040   36.77230655912451
H        14.00170142757474   12.10094563533303   37.22829422101402
C        12.49097630173788   10.62483713985661   37.51556870485251
H        12.70400985118162   10.47599682204222   38.56271092128960
C        11.46898692949386    9.90743588281355   36.89764448811427
H        10.88378477907457    9.19619690901226   37.46235946451889
C        11.14682312463980   10.07166475486102   35.56491846971753
C        11.87632267908198   11.00282614235745   34.76060205817163
C         9.97277510676778    9.27170007293806   35.09759924553333
C         8.13782426162026    9.44863459582828   33.45344209015342
C         7.43876430537877    8.31887326493018   33.86793300832426
H         7.86838305507744    7.69608528838785   34.63398517022692
C         6.22411154805797    7.99495354861646   33.29621191439789
H         5.69251983999374    7.11667556912810   33.62622043339647
C         5.71912374678332    8.77812756937804   32.28308960255919
H         4.79753193318959    8.52382625515690   31.78342021858000
C         6.37589570731242    9.94118407884392   31.87403582662983
C         7.57783379006346   10.31728010414935   32.49080046268332
C         8.71701581322686   12.38808518863160   33.08995027740628
C         9.46482150577122   13.57278229123627   32.56802638898967
C        10.32182346650585   14.21014521579510   33.47886894574970
H        10.40469957176971   13.77408091063253   34.46496889775798
C        10.94814967342778   15.40696086345102   33.18403579300855
H        11.56138956094579   15.88890406202727   33.93170831909817
C        10.75631984680464   16.01054226815497   31.94464169212863
H        11.21721230975403   16.95961332139368   31.71052954214594
C         9.95825386146573   15.37741858148380   31.02092462249592
C         9.32044373457375   14.16990966213149   31.31785171543865
C         8.61714199079177   14.65880930420704   29.22395389312036
H         7.60166455235391   15.02504949066246   29.04561344679674
H         8.96435946663111   14.13329431559129   28.33160832194989
C         9.56323505448304   15.80515584529124   29.63449557537509
H        10.43706667306798   15.83478827404610   28.97484598811883
C         8.87874266944443   17.17058920495570   29.61437437917578
H         9.57019091856060   17.94483994487790   29.93751913958026
H         8.02172537183234   17.17496556957990   30.28413003042167
H         8.54017051993361   17.40806644316850   28.60850199008199
C         5.69436311053795   10.66251219873629   30.77172760132347
C         5.63411148779069   12.55272873698870   29.37510257939219
H         5.74603015392436   13.61460480656947   29.60689914587792
H         4.57081372487746   12.29776784414603   29.31875454320065
C         6.34413579514283   12.18984556303868   28.07529750335669
H         6.20690943432223   11.12402096850609   27.88689070275537
H         7.41286026342697   12.36017422986144   28.21169203467307
C         5.82923354118804   13.00835976323732   26.89617440163997
H         5.83474638871887   14.07083872567324   27.15789880349384
H         4.79657638732054   12.72630099658024   26.68740356403113
C         6.69299922364557   12.79701387817946   25.65457836415292
H         6.72569833596060   11.73346694182678   25.41793565928486
H         7.71369580851027   13.11029581129093   25.88881127551141
C         6.20119305233751   13.58833924925227   24.44083004722839
H         5.98344143276711   14.61174710055069   24.75806279830808
H         7.00240402975470   13.64310936369754   23.70210028991498
C         4.95207043096618   13.00434013538008   23.77646300090992
H         4.54491099784708   13.74664377798575   23.08496966254721
H         4.19479449876761   12.82288224628846   24.54089157571110
C         5.19925556387708   11.70532581373785   23.00674908205144
H         5.71251233048283   10.99238587707847   23.65130630205464
H         4.23179841167075   11.27139533452491   22.74237704008260
C         6.00147311530958   11.91496986310402   21.72363172586076
H         6.99985543363186   12.28486434400451   21.96447124895110
H         5.50203335157693   12.67888282126187   21.12138939805431
C         6.13919269850630   10.64304351476931   20.88577432569564
H         5.14932744189389   10.21323170845242   20.71449637910698
H         6.55330645224456   10.91126220540280   19.90995262290087
C         7.04425050492239    9.59184362644271   21.52517643157608
H         6.60896836227220    9.24914001805519   22.46510391438882
H         8.01420207977697   10.04166054977522   21.75202421543183
C         7.25240068049230    8.38785232502699   20.60932815371459
H         6.28378161233500    7.93511953831584   20.38469300369729
H         7.68629262854904    8.72355362081083   19.66402523579458
C         8.16478516049254    7.34415610254225   21.24220228563607
H         8.29878128659350    6.49601846854486   20.57456869126082
H         7.74069760699302    6.98232302612568   22.17621523499196
H         9.14271480045799    7.77099935654174   21.45512124272614
N        12.98285613199637   13.60428945199220   31.04778529461933
N         9.73577891041623    9.39931795183301   30.54038858428771
H        10.47331898348578    9.92066410280014   31.00681006500336
N        11.51051613552526    8.25064077187410   32.33798238542222
H        11.84814720929471    8.13074386245263   33.28539190280157
O        11.16250968032613   11.61049893567580   30.98302571710527
O         8.31978937239508    9.57688675973710   28.75256806321581
O        12.23996768156859    8.58058375777395   30.20676541177358
O        13.71714025328458    8.56128363504083   34.20147317149406
O        10.22547817909137    4.72259889895516   34.29182220447882
O        11.86361840005949    6.22197370861697   34.02506371830797
C        15.63638159181743   16.32395398714326   31.66177646512845
H        16.38106210773397   16.83443778274005   31.04908227922934
H        14.94089092998711   17.07778215413375   32.03761091577685
C        14.86815294444503   15.32158206083092   30.80092598903214
H        14.36882568971229   15.87217622833054   30.00289292602685
H        15.55492031057076   14.60356733121300   30.34759318006818
C        13.85624102907866   14.58778697055081   31.68297983739898
H        13.19583884949337   15.33850980163448   32.13886295396821
C        12.64590083135509   13.73298377929674   29.81076754549918
H        13.08382927670978   14.54152682683067   29.22736131952644
C        11.72573496029354   12.92816468970496   29.08879737033016
C        11.52606405444495   13.20750112585595   27.72522356466853
H        12.10187698240201   14.00188709488713   27.26933879322080
C        10.62611838874105   12.49086210374774   26.98181819892131
H        10.47738737537371   12.70389912581962   25.93466171382153
C         9.90884083384104   11.46867944437512   27.59957879236188
H         9.19774202214333   10.88341093910444   27.03475196297032
C        10.07308573949765   11.14641783518454   28.93227103624357
C        11.00397052327759   11.87608265854889   29.73672530404074
C         9.27346700228399    9.97214643599565   29.39959373068843
C         9.45128871013175    8.13712500014030   31.04363537277414
C         8.32172063488314    7.43777656225036   30.62910273890970
H         7.69900243069492    7.86712497366606   29.86284245374614
C         7.99776659124303    6.22332288041214   31.20120675814960
H         7.11936488015486    5.69173610066837   30.87154172464473
C         8.78103353516278    5.71860878649584   32.21438021340335
H         8.52674738938940    4.79721914981606   32.71442733910660
C         9.94421962548283    6.37537572853262   32.62309076366689
C        10.32005833386595    7.57741421451910   32.00634305022577
C        12.39061336164499    8.71739807412096   31.40750277950399
C        13.57498696739297    9.46547717908117   31.92982603289721
C        14.21214554910293   10.32317646922940   31.01949198617542
H        13.77629025037118   10.40631560427094   30.03331863361269
C        15.40863532290498   10.94989341690127   31.31486817881650
H        15.89048272648458   11.56368038829461   30.56758158563622
C        16.01209151423789   10.75773095682423   32.55426741372081
H        16.96088418142267   11.21899508223966   32.78877682694851
C        15.37920803472925    9.95886356867879   33.47745584494970
C        14.17203729587666    9.32067734965952   33.17999163806704
C        14.66043526007852    8.61717610533103   35.27396110106364
H        15.02624748562304    7.60177769213661   35.45350865520096
H        14.13433375078800    8.96535534370056   36.16560495004305
C        15.80722236379359    9.56277288088167   34.86348737006337
H        15.83788664126843   10.43607375746525   35.52376925891038
C        17.17218392538419    8.87725276924427   34.88220439354486
H        17.94661568165103    9.56815537616631   34.55832201743622
H        17.17523274399092    8.02031042684440   34.21234273978231
H        17.41043144490333    8.53838562110571   35.88779233591214
C        10.66592814737329    5.69336290727016   33.72483358434317
C        12.55467729247477    5.63412490740572   35.12330141208781
H        13.61672268397566    5.74622278161957   34.89239933709309
H        12.29982693269688    4.57077496536461   35.17921047911071
C        12.19048972644082    6.34393716173020   36.42283352318046
H        11.12415745903827    6.20794653588680   36.60926943215922
H        12.36234766549167    7.41252928255193   36.28722539205913
C        13.00622733702993    5.82750952202446   37.60319483410121
H        14.06909084732036    5.83066335275073   37.34299139647932
H        12.72161501940501    4.79551856367239   37.81181811714014
C        12.79487941341765    6.69211840115160   38.84418775209464
H        11.73126363365775    6.72545951605119   39.08048310607167
H        13.10868684364253    7.71254134526733   38.60941487858681
C        13.58569362684781    6.20078181736364   40.05843898374164
H        14.60937313176212    5.98341105143060   39.74181490486706
H        13.63967769454755    7.00216172738686   40.79702912817094
C        13.00179521868860    4.95157814705117   40.72272977701662
H        13.74395524880321    4.54454596604806   41.41444803539392
H        12.82068845783712    4.19427354773710   39.95826608398856
C        11.70258735986088    5.19886686201080   41.49209382382670
H        10.99067511451481    5.71404751454581   40.84796003615182
H        11.26729553038773    4.23153518751694   41.75467846952238
C        11.91250544521410    5.99884602235531   42.77656452763275
H        12.28542118891125    6.99655660306972   42.53755091106857
H        12.67426688898682    5.49660614457161   43.37916506720889
C        10.63982022474585    6.13884129988699   43.61287224339914
H        10.20728735300694    5.14987900299464   43.78251675394976
H        10.90774444548190    6.55125367440855   44.58950927672655
C         9.59182591376051    7.04718065592889   42.97289223583459
H         9.24877294701737    6.61331377128081   42.03242468867825
H        10.04463923954231    8.01594410013962   42.74689892341420
C         8.38756611295049    7.25834709014686   43.88767229450539
H         7.93247608031411    6.29082902787621   44.11231771632289
H         8.72342101638176    7.69187744140430   44.83309016653295
C         7.34647399514381    8.17277971963192   43.25348986804560
H         6.49824113981410    8.30927821889425   43.92048272532068
H         6.98422436798367    7.74886687267546   42.31955720787897
H         7.77579609190721    9.14952977672166   43.04012332593561

