25
CSD_code = YINPOD | q = 0 | S = 0 | Stoichiometry = C10H10FeO4 | MND = 7
Fe        9.17265705555152    2.50292242488056   12.95441197903778
O         7.10708831983964   -0.04104613253856   14.53224440547940
O         8.79397300281162    5.00604665273443   11.53187096625428
O        10.89522352443139    1.19251252491130   10.97499122098430
O         6.57715716314883    1.72921847666934   11.88456848517200
C         8.87419436254688   -1.57961219328770   14.04191454660252
H         8.07493847572439   -2.30127445853974   13.89437447947642
H         9.49771830780876   -1.90336779901639   14.87436659984233
H         9.49450399419924   -1.52886778671501   13.14948042648594
C         8.29447288160923   -0.21766544986337   14.34770403906686
C         9.27793198196163    0.88184153430782   14.40534225593866
H        10.30355868956197    0.54602660521631   14.53978432005242
C         8.84859667231749    2.09448396666827   15.04964286844774
H         7.89182432817421    2.11146611555110   15.56040364231665
C         9.66287439797484    3.23145136164181   14.97384577331365
H         9.33179455270120    4.17241235503927   15.40160470421112
C        10.86377382772755    3.16433243902183   14.21306868161786
H        11.51143543255422    2.30448696313700   14.37365727202773
C        11.65663888385237    4.42904484568375   14.00317288537626
H        12.33198402113834    4.32362128932762   13.15784259252336
H        12.26077194531139    4.64219619000817   14.88757000197107
H        11.00382504011673    5.27928660364610   13.81928931420561
C         8.94336472219231    4.03792423684845   12.12564568956907
C        10.24968905922266    1.70454097422587   11.76727914414993
C         7.57070935752206    2.03121826044200   12.35612370587731

