98
CSD_code = YINPOB | q = 1 | S = 0 | Stoichiometry = C34H59O2OsP2(1+) | MND = 7
Os        2.63901514601336    6.04544251495713    4.25885548988596
H         2.66117728680387    6.94239095799610    5.53821290668933
H         1.98634621499004    7.41695402292997    4.12154122266236
P         0.49005796381899    5.15604011039119    5.00869066479100
P         4.75012202715496    7.07819553108351    3.59407449965935
O         3.11508048886694    4.29445243578342    3.30360577208734
O         3.76116616536046    4.79256270737573    5.76328598475679
C         1.84472846045591    6.29229247847783    2.31046076063028
C         1.12410904877079    7.35107928121416    1.75680886231751
H         0.96110072545259    8.25345574992867    2.33014941755701
C         0.59178839452353    7.28459313662623    0.47980410180295
H         0.04141779776012    8.12732731168494    0.08883257671787
C         0.73642776741926    6.13754158688984   -0.29057749428693
H         0.28647958298516    6.07930775919862   -1.26947590538458
C         1.45461502469585    5.07531979662147    0.20872822274564
H         1.55293081658798    4.16556041476591   -0.36369110592389
C         2.03557980867780    5.16102587824565    1.47851058558640
C         2.81309654243429    4.11356935090813    2.10496348507775
C         3.25082534994993    2.88440406183349    1.42256187880981
C         3.72311876616394    2.90126414317410    0.10976937887046
H         3.79220547862124    3.83397025514143   -0.42901321812002
C         4.14792430049654    1.72960753008820   -0.48774138641233
H         4.51649111963649    1.75184419943504   -1.50194658784811
C         4.10653819667277    0.53220275971879    0.20867110660642
H         4.43152114066334   -0.38051194234009   -0.26626545021087
C         3.65873005475353    0.51110189812492    1.51963359136672
H         3.63492992876598   -0.41730579286124    2.06972811062751
C         3.24390579776283    1.67993976583213    2.12707463785708
H         2.89462255389315    1.66483258361105    3.14945181028196
C         4.21768129067956    4.61112806936810    6.87719443070204
C         4.03472344882955    5.56687487803379    8.01679456148236
H         3.26696793736378    6.30203878547301    7.78579434846818
H         4.97301025633388    6.08976440680294    8.20044417237589
H         3.77492328257906    5.03306827135035    8.92761260201826
C         5.02017047614768    3.38018213083349    7.18704878275224
H         4.47982486350484    2.76563128352515    7.90555109282944
H         5.96921342929115    3.65523913934530    7.64227120817992
H         5.19952864718267    2.79759983157787    6.28690474310144
C        -0.71428714804589    4.63751260659747    3.65470966938667
H        -0.53541341465901    5.39015438383806    2.87502903954255
C        -2.20302190039979    4.66630442125424    3.99860003987277
H        -2.75734120941669    4.30041915180848    3.13542169342486
H        -2.55746566255721    5.66995423715596    4.21063876281037
H        -2.44195917008218    4.02313192676490    4.84003782380043
C        -0.35490236398290    3.27066765682844    3.07222199665642
H        -0.72915487098343    2.46972398436916    3.70511175315564
H         0.71817674823494    3.15083508023662    2.95411528178550
H        -0.81136365784434    3.15749609220986    2.09008958802760
C         0.65676667831966    3.76059201502174    6.25445538956523
H         1.22232275487141    4.25128802747267    7.05979095611363
C        -0.64618205986300    3.22375139274181    6.84027498025599
H        -1.21120339505728    2.66907368018061    6.09606411365258
H        -1.27336344090167    4.01375559021497    7.24383468815250
H        -0.41254741124568    2.53668113336833    7.65293993054035
C         1.51385271669787    2.60529401050795    5.73715659797811
H         1.89095800264025    2.02152041348244    6.57651417223683
H         2.36691981618552    2.97228571603646    5.17067814992534
H         0.93664668640155    1.93653033206443    5.10488359410626
C        -0.54163255515053    6.39409159295640    5.95894023496265
H        -1.50287777771919    5.90972644270609    6.15426064977420
C         0.08179577746921    6.79165758660244    7.29275637535889
H         1.07990624363758    7.19652603052995    7.13466417003004
H         0.13955061324133    5.95632134857960    7.98571570353806
H        -0.52476821422092    7.56707320767835    7.75646583945350
C        -0.77911586466941    7.64496037305936    5.11525197180096
H        -1.55221930564573    8.25827127524602    5.57393022769542
H        -1.08937676837458    7.39997848852350    4.10291983696370
H         0.13380284540776    8.23312416162361    5.05702953901423
C         6.28046251036576    6.17498390966478    4.20063024427557
H         6.14486495774099    6.22043309659334    5.29078726356662
C         6.30100992877709    4.69700376939716    3.81097971174849
H         6.62614570604056    4.55759759662245    2.78404314956336
H         5.31921228180787    4.24391128523812    3.92528324440846
H         6.99872071983931    4.16031153398542    4.45318065689499
C         7.61685734958625    6.82710186664075    3.85631470719393
H         8.41244382952469    6.30602069273939    4.38789265983943
H         7.65282443825961    7.87324557520368    4.14789523975004
H         7.82893815629456    6.74894177348139    2.79357546810507
C         5.00601063977499    8.78022900140964    4.32781948542952
H         5.91227242019091    9.18365564792765    3.86682001711834
C         5.20051096400766    8.74823414734769    5.84043424400377
H         5.20521291844905    9.76600419963998    6.22541952309568
H         6.14153337359244    8.28266304080742    6.12214025140150
H         4.37998008860002    8.21190751343223    6.31397001479954
C         3.82913279527378    9.69018972931387    3.98009715068324
H         2.96575604298060    9.43395465623603    4.58922176045611
H         3.54414858336740    9.60171998678610    2.93481473154085
H         4.09188438669331   10.72729200979762    4.17924316999131
C         4.92687757175331    7.43681153172320    1.75352403176428
H         3.89949645974459    7.69554789028511    1.46202489752652
C         5.32681173859429    6.18070243342941    0.98091942028211
H         4.81332248146123    5.30030828462403    1.35745136948212
H         6.39892889560811    6.01104875758605    1.04353359009336
H         5.07128932751694    6.29908927861908   -0.07107703458190
C         5.83692496816821    8.59586520840792    1.35032937857815
H         6.85545661741519    8.45731068283707    1.70017636686381
H         5.46829891108703    9.55211253645963    1.70769414858164
H         5.86507266313700    8.64291272098788    0.26253850693400

