93
CSD_code = YINPER | q = 1 | S = 0 | Stoichiometry = C29H58N3OsP2(1+) | MND = 6
Os        7.55026422956990    9.17534192150216   25.61446895805393
H         6.49539184235200    8.56740095156459   24.61029617994692
P         8.41449081883408    6.91844206702215   25.80008241157222
P         6.51586104655846   11.33045201873346   25.19659790126195
N         4.99985526838253    8.31803426430224   26.92670023045311
H         4.78962140776885    8.12672778334160   25.95196121199026
N         8.77395568883216    9.51847161723668   24.13097494468544
N         8.85320809257288    9.93248101566444   26.81587198698417
C         4.02785568048774    8.04037215309068   27.82511661096760
C         4.27799622831043    8.27624445510105   29.15153736656834
H         3.53874070935323    8.07264219363941   29.90562564473112
C         5.53124622276513    8.79335691244322   29.50683716042948
H         5.74527084420145    8.98349119441273   30.54830016910557
C         6.47540620880187    9.05613884111627   28.54675177726054
H         7.42893384040326    9.45659631438691   28.85497847860496
C         6.24504825586080    8.82281652391653   27.16693411598037
C         2.75229882343642    7.49345575832414   27.25737034323488
H         2.36126011746836    8.21759295392470   26.53530598224277
H         2.99048329254176    6.58390454668105   26.69685270246673
C         1.67551709715507    7.18047886317639   28.28803533207945
H         2.02126534605696    6.43273297183236   28.99698245945597
H         0.79464979675013    6.78916933137108   27.78646817432922
H         1.38510952966507    8.07581341543561   28.83139793418401
C         9.44480580821691    9.71373454185883   23.21011834816664
C        10.26435391284897    9.95443176780571   22.05798410937772
H         9.63414728468711   10.09288186697360   21.17891383857181
H        10.92460227137851    9.10377043800740   21.88821180799447
H        10.87031691515124   10.84864356818654   22.20693500851777
C         9.68284579058644   10.41501049973971   27.45983779454619
C        10.70600444142899   11.01412969224716   28.26909595559210
H        10.27495194377552   11.39282855662380   29.19682698812657
H        11.16700963532221   11.84303409417646   27.73068510296196
H        11.47311105533972   10.27708227986763   28.50999305860329
C         7.15044477790707    5.67590980024959   26.43870539819101
H         6.68052060360886    6.22595618014056   27.26630533521873
C         7.66428108702718    4.35055888562740   26.99895857392268
H         6.80608367038389    3.75018997933232   27.29944369129730
H         8.28904738152510    4.48686334412275   27.87650299582595
H         8.22022344670095    3.78341092636435   26.26003064309152
C         6.07883597213517    5.41030750894921   25.38206051665750
H         6.41258647679031    4.64550449011634   24.68616809667855
H         5.85722738243332    6.31609831650607   24.82210840517320
H         5.16561434842011    5.05029278221513   25.85368843720254
C         9.13984903973755    6.26327506545155   24.19129038820770
H         9.97840194143361    6.95834404159774   24.04064066315593
C         9.69411280532274    4.84052053007023   24.20808671568158
H         8.89029061439746    4.11043843647339   24.24277020536746
H        10.37138665252822    4.66167944671082   25.03826084788976
H        10.24891314840236    4.66913359983234   23.28617670619918
C         8.20222394321958    6.42512707908061   22.99512669760365
H         8.77799629572863    6.38977634994433   22.07149488921283
H         7.67466532405773    7.37437141751011   23.03733116168288
H         7.46967333909855    5.62499011420667   22.95816710963993
C         9.85129960023085    6.59396242716291   26.95989326325558
H        10.04007914578694    5.51655290818253   26.95461548448434
C        11.11299231215606    7.31607507983874   26.48974275629142
H        10.88948794753589    8.34441901802932   26.20789475739698
H        11.56479580071782    6.81641167469580   25.63635638725304
H        11.85071867276936    7.33238820790082   27.29075657761591
C         9.49392110284752    7.00974162761449   28.38519799823051
H        10.27015422779881    6.67934663133209   29.07436027462806
H         8.54872649094456    6.57745479710473   28.70535345718611
H         9.41032079652411    8.08936972972218   28.45838992731596
C         7.62925802618884   12.65033878408277   24.44136491451722
H         7.83126992680227   12.22633712161110   23.44825499310883
C         8.97832272877197   12.77527679115193   25.14717459380522
H         9.62141340610903   13.44865678120116   24.58086436770381
H         9.47374355551972   11.80986180377919   25.21069526674366
H         8.87022874030852   13.18101694104882   26.14902987682564
C         7.02106965518556   14.03802965218140   24.25612332287522
H         6.93557176865319   14.55626459210428   25.20743460665512
H         6.04557483818045   14.00353815633078   23.78000304534541
H         7.67729011149272   14.63052102262085   23.61927728998328
C         5.62360512638723   12.07050439573829   26.68284490754229
H         5.12917678570491   11.18869728010092   27.11597992137438
C         6.63340723119366   12.57178898064292   27.71284514646403
H         7.03617595603756   13.53879866260511   27.42231848180353
H         7.45177556720612   11.86404837930533   27.82240252594394
H         6.15112692411765   12.68965271915588   28.68214800307994
C         4.55124807775069   13.13000989586749   26.43959974026063
H         4.11517481707554   13.40177427814225   27.40050702379027
H         3.74736920110794   12.76598788711583   25.80712012783902
H         4.96102645169763   14.03185935680407   25.99825202608369
C         5.14811623670453   11.32415169058444   23.91314801164314
H         4.74897874088911   12.34212537987590   23.86701920700970
C         5.67634815388767   10.93176463668043   22.53548994168692
H         6.28579111648183   10.03195915014624   22.61373504573425
H         6.26747407083996   11.72426808071573   22.08419943821930
H         4.84166538981978   10.72196153095680   21.86922986414891
C         4.02102786820240   10.37365354027568   24.31086205639369
H         3.15374646695452   10.54218944491865   23.67449736443769
H         3.71950831881929   10.51177400635233   25.34672836270945
H         4.34986094687855    9.34711328810124   24.17032207573421

