35
CSD_code = YINVOH | q = 0 | S = 0 | Stoichiometry = C14H15F4IrO | MND = 8
Ir       -0.10994274604273   11.11135447405126    1.57189510044541
F        -3.09367602327014   11.40636834353393    1.18305427914392
F        -2.14064634764870   10.26432809654676   -0.39196763507999
F        -2.99118738045419    7.81512877906964    1.91467062989842
F        -1.19628390367359    7.72186378136537    3.11879902624863
O        -1.17219317819919   13.09172405777017    3.59049758321470
C         1.64750410545937   12.12767376061725    0.62715273217412
C         2.14857138977044   11.28908017082540    1.71235124493928
C         1.86404486015602    9.94475223693014    1.38815638104551
C         1.12923411000158    9.94098613015061    0.14938793738898
C         1.10481394304921   11.27177591366610   -0.36907026872322
C         1.99976719928588   13.57306742065311    0.44794949727823
H         2.98742231071708   13.65365233533650   -0.00975253663003
H         2.02507528982385   14.09439640312227    1.40189041815310
H         1.28387036730383   14.07609391788364   -0.19748432895203
C         3.04791797178792   11.76731760663906    2.81046661054966
H         4.07638609887648   11.80948305488896    2.44722499109069
H         3.01609968122848   11.09515897100489    3.66430961587729
H         2.76738013183010   12.76257180261882    3.14708530779415
C         2.33919467780845    8.72949223343157    2.11609430709748
H         3.26634420311413    8.37088879230254    1.66527695708662
H         1.60703878704212    7.92720414353325    2.06609435396123
H         2.53099292058822    8.94874501636478    3.16324633815269
C         0.79922680598076    8.71270376595786   -0.64097647840010
H         1.64950162661602    8.43732227632108   -1.26739660874257
H        -0.05807795212946    8.88096803663146   -1.28919795139271
H         0.57529175975004    7.87272222485798    0.01308725740783
C         0.66896994390069   11.66000248108455   -1.74458765047122
H         1.47019593396247   11.44962817697989   -2.45534391913176
H         0.43490745772476   12.72026439760358   -1.79862071509520
H        -0.20958114733283   11.09718174184096   -2.05315901479997
C        -2.01555171555742   10.63087765276114    0.91025885548432
C        -1.54790912425102    9.68022871378509    1.87600889763047
C        -1.88746538172614    8.47789780691666    2.26649187429063
C        -0.78173667549231   12.33209528295379    2.82460691106502

