59
CSD_code = YINZUQ | q = 0 | S = 0 | Stoichiometry = C21H27CoN10 | MND = 6
Co        0.00002885983319  -10.34614377685755   -9.69854442035920
N         0.00008544330522  -10.34609083362329   -6.10559460026842
N        -1.16488326249051   -9.20247627434650   -8.63528702188636
N         0.34311231925358   -8.76822270495237  -10.69697467276183
N         0.84280824811955   -6.94706592628725  -11.87697668732731
C        -1.15615708905457   -9.50472201672708   -6.17112350825808
C        -1.96467052822743   -9.54721171788821   -7.49430974597809
C        -1.18504669824738   -7.98565838624088   -9.07463866374269
C        -0.36523253280484   -7.69899313495667  -10.17418775278150
C        -0.02875182596664   -6.58237724032543  -10.93713876550370
C         1.04561415957592   -8.26325723717460  -11.71079126182333
C         1.96945178097752   -9.01226733500698  -12.59953685232030
H        -0.82989733326889   -8.47729365028169   -5.99399982463305
H        -1.85467780812880   -9.78039342509905   -5.36708969898376
H        -2.37287172313520  -10.55038868333210   -7.63444415126716
H        -2.80386016520265   -8.84639437952561   -7.38910988001647
H        -1.81136798429348   -7.22025465147263   -8.61951640009995
H        -0.36881775278841   -5.56944023449690  -10.84122432506517
H         2.26799957837378   -8.36024385071856  -13.41552114811154
H         1.49173568076118   -9.90450340208961  -12.99806708284711
H         2.85840036829155   -9.32588834213970  -12.05300545962943
C        -0.15043471713438  -11.76810929508490   -6.17106155385356
C         0.29051686366961  -12.44707334867294   -7.49428390359589
N        -0.40786521510522  -11.92689002559534   -8.63533720107931
N         1.57296242088578   -9.90920297772292   -8.63534398121730
C         1.67433603552004   -9.04415612161007   -7.49440752023030
C         1.30684493078634   -9.76543802544552   -6.17113639753250
H         2.03349193866465  -10.56167623885310   -5.99389066680264
H         1.41731416606948   -9.02257569155122   -5.36717847875574
H         1.00971679429894   -8.18902465991253   -7.63462678109853
H         2.70087726469164   -8.66785856102893   -7.38921147236631
C         2.63678663110409  -10.50033282325004   -9.07457747359821
C         2.47507988328430  -11.35367611637307  -10.17408768191272
N         1.19495649943501  -11.43225612008937  -10.69698200919835
N        -1.53810344156269  -10.83798940580274  -10.69686961201026
C        -2.10990583837277  -11.98603026455803  -10.17404535345532
C        -1.45159623766067  -12.55276713398885   -9.07463465516135
H        -1.80148385032308  -13.47769786780810   -8.61928400767603
C        -3.24530350602148  -12.25283864890233  -10.93683011866403
N        -3.36503528265025  -11.31595490857943  -11.87694826500423
C        -2.32664698102828  -10.48215545414338  -11.71071112204430
C        -2.13977202761257   -9.30773022401099  -12.59965038069543
H        -2.85315591968649   -9.37563686224585  -13.41596875188379
H        -1.12804531084867   -9.27514970152041  -12.99757528924939
H        -2.31322369547795   -8.38105097480780  -12.05349018194570
H        -3.95248557536540  -13.05382352289613  -10.84089520870423
C         1.28099658264533  -12.29296435603418  -11.71092958839570
N         2.52220212756908  -12.77558034835314  -11.87708254511932
C         3.27379644886514  -12.20343369039326  -10.93705196932355
H         4.32101989281943  -12.41556526544217  -10.84107812848377
C         0.17047782116906  -12.71807156886951  -12.59998149299996
H         0.58590863790516  -13.30234837135112  -13.41613019360386
H        -0.36319204782033  -11.85801083102974  -12.99824746846470
H        -0.54573798427745  -13.33123181389643  -12.05377265502582
H         3.61278778059401  -10.34081372056451   -8.61934509874880
H         1.36339075875038  -12.29904009153126   -7.63443678936191
H         0.10317207517490  -13.52423331662668   -7.38903379529750
H        -1.20333480923362  -11.99926362279892   -5.99389197751987
H         0.43758515139646  -12.23516082511249   -5.36700830625546

