77
CSD_code = YIPFUZ | q = 0 | S = 0 | Stoichiometry = C40H26CoN9O | MND = 6
C        17.82553750181190    8.24066159559357    8.80640929900935
C        18.70467532737371    7.00580563025875    8.91278858839872
C        18.62542074767584    5.78008380274116    8.29235545540188
H        17.81693021453978    5.54833407689829    7.61607170532000
C        19.61439089920478    4.84697215890855    8.58032396591554
H        19.57537733707183    3.87248018872708    8.11520408369547
C        20.65242279674621    5.14362790541343    9.45289908254375
H        21.40675089770492    4.39598162154924    9.65175923686315
C        20.73459472349439    6.38173131706051   10.07176630437215
H        21.53507928804025    6.62801090171688   10.75131647928971
C        19.74349742751591    7.30330911872904    9.79150091616446
C        19.50721282333420    8.66858958965055   10.26676998395877
C        20.26521487007218   10.58801178834482   11.26854176625785
C        21.37982733602884   11.37926487802736   11.78380009800241
C        22.67164047078574   11.04248853556465   12.14187741802872
H        23.00722559614726   10.01905542317909   12.08647716621366
C        23.50496576322413   12.06462962794306   12.57071715045228
H        24.52135410412959   11.83803412953958   12.85870028621260
C        23.05786524160680   13.37986242936112   12.63578167814374
H        23.73618954801166   14.15057461055937   12.97235947713928
C        21.76161586224961   13.71964265693046   12.27718120996785
H        21.40697090982291   14.73695042811812   12.32415201582167
C        20.92928067203361   12.70351071473946   11.84850410320526
C        19.53197133128726   12.67907647169899   11.42533651174661
C        17.41699941670689   13.66146769462737   11.22570126251803
C        16.81746192429285   14.92118913617492   11.40355557412994
H        17.47382958548171   15.75450286033480   11.60146457508915
C        15.45139626620482   15.06797650320209   11.35377619829840
H        14.99399279261483   16.03695475772401   11.49129287855595
C        14.67497765628013   13.94717766138357   11.14895353655123
H        13.59731867068195   14.00186960577613   11.12485317046600
C        15.25600146728296   12.68776968463187   10.94168113332804
C        16.65264173761502   12.50986087787934   10.94476308477808
C        14.58998344490583   10.53098176783884   10.32022415609727
C        13.55331245833515    9.52011875959065   10.10200785336279
C        12.19027810242940    9.51946314924546   10.32546476443946
H        11.70266787419279   10.38515872715002   10.74463718562747
C        11.48646413386495    8.37102542892259    9.99277310315966
H        10.41894865111866    8.33419995252953   10.15640598040052
C        12.12814676782022    7.26374277702115    9.45107124739819
H        11.54863088112885    6.38594321783596    9.20335550912318
C        13.49708205222132    7.26676096708190    9.22255903608082
H        14.00591923624244    6.41378029047716    8.80190407511061
C        14.19643788215503    8.40869421863886    9.55690466947067
C        15.62070273809927    8.75706228052175    9.45508508195212
C        16.72946933018610   12.04994473375442    7.97920215863986
H        15.75792995025381   12.07894578237654    8.44932775118377
C        16.86855035103684   12.50568089689814    6.68150021150415
H        16.00318090960252   12.87449004327071    6.15361862380242
C        18.11723624659499   12.47980702590947    6.08403960883218
H        18.25987180501708   12.82647648570376    5.07184201689710
C        19.17613013703935   11.99352889980015    6.83095255757754
H        20.17345746758529   11.94659565806965    6.42343943803608
C        18.94713213597741   11.54954896806384    8.11976645490299
H        19.77199925501946   11.15591125976963    8.69441677549157
C        17.35720899873394   10.80914144596876   13.31652311559158
H        17.55124355449774   11.86292694710193   13.18082842347225
C        17.26143228863145   10.29348626447481   14.59500963051925
H        17.39132370451138   10.94892122713808   15.44151246576197
C        16.99837326241073    8.94397264512637   14.76494093378356
H        16.91862775148569    8.50938032547523   15.74949330061063
C        16.83884621061045    8.17314020742095   13.62607625311051
H        16.62928845755815    7.11704819261008   13.68849408318719
C        16.95311046022237    8.76883568386314   12.38331648274812
H        16.83164767714015    8.16192239324092   11.49791240052615
Co       17.48252192406846   10.81103739501249   10.44516081488713
N        18.38543417138992    9.15364725068162    9.78837539370016
N        20.40700323649625    9.30666130344114   11.01170138781662
N        19.19816529932744   11.38384122554170   11.07701013958049
N        18.77497134550246   13.70853725888447   11.44137579502738
N        14.31172002112587   11.69890427568678   10.76186721365009
N        15.80451033394390   10.02411670928921    9.92511485594609
N        16.45696371401477    7.90375252550817    8.98293022514750
N        17.74609492405680   11.57011851412027    8.70045046249339
N        17.21218130705986   10.06842838437646   12.21200456876093
O        17.99933210647146    8.85633137874055    7.52823289234970
H        17.40393623284380    8.39892877283983    6.92333550639931

