79
CSD_code = YIPLUH | q = 1 | S = 0 | Stoichiometry = C32H41ClCoN4(1+) | MND = 6
Co        1.12750217567764    2.96598990177467    5.99135036308382
Cl        0.60783259845581    0.90514665628754    6.85945817695857
N        -0.08592277554987    2.53606563539952    4.50406773506810
H        -0.32409783008652    1.56762118515183    4.74983954014371
N        -0.47286536396045    3.81258199445381    6.88866911925364
H        -0.39386460826881    4.81685320098369    6.69856002795240
N         2.36104898238707    3.36202535791448    7.50050137093706
H         2.69278519112203    4.32147567041357    7.36051877914705
N         2.68389082376068    2.09588994798346    5.10362224729709
H         2.48067336470675    1.11769114249213    5.34274868925457
C         1.53911276238909    4.61098709473277    5.21620476180985
C         1.75263904775215    5.67405778704238    4.68252995645889
C         1.99277379703888    6.91326449101892    4.03175446761215
C         1.13084817334774    7.34296085551438    3.02278926865424
H         0.28425120577742    6.72933034584092    2.74601489337218
C         1.36031167940458    8.54635143178026    2.38453623156780
H         0.69032751189260    8.87518825082617    1.60420653926427
C         2.44545534257362    9.32988433670256    2.74351893426560
H         2.62142759982639   10.26951862592651    2.24300707815260
C         3.30428463596935    8.90650571815912    3.74511376164099
H         4.15006903554357    9.51649767464225    4.02500432255988
C         3.08341702420718    7.70427810223330    4.38941124950279
H         3.75258590840732    7.37097067894535    5.17041377102415
C        -1.30774394902033    3.33124760825694    4.67003820298367
H        -2.13345529281151    2.91974301062570    4.08015143957076
H        -1.10414096024269    4.34980460448682    4.32591912240418
C        -1.65140020938756    3.33359630144024    6.14936950245582
H        -2.52655111045767    3.96362659707343    6.32821417082236
H        -1.87044724892287    2.31556596651297    6.48238221401167
C        -0.62623160865362    3.67382949115785    8.34999941866780
H        -0.74207075753616    2.60698444209754    8.56546461738778
C         0.62672289580802    4.19712735860826    9.05395573085811
H         0.42025866045291    4.26299471903666   10.12263132677697
H         0.85420968614788    5.20598987432359    8.70004217151408
C         1.84887742899933    3.29357807144929    8.88058260231482
H         1.54949019050922    2.25670749314289    9.06454673899614
C         3.52472784412123    2.48187772702978    7.32747323819809
H         3.23755285114314    1.47472902773939    7.64170323471553
H         4.36835475000528    2.81168550460817    7.94244987782846
C         3.88997540473037    2.47387697141230    5.85329453606813
H         4.19866685687998    3.47192745011643    5.52815711382480
H         4.71043829635625    1.77193274721204    5.68266744198549
C         2.86334203900963    2.16071801584803    3.64161208601633
H         3.01486239619256    3.21334025686681    3.37764605657801
C         1.60646601152508    1.63674554062413    2.94522531580190
H         1.81057229112492    1.55489381975223    1.87732946385176
H         1.37947469832567    0.63284770705448    3.31178165311319
C         0.37734240790121    2.53338517001448    3.10760139596973
H         0.65127115691226    3.56362271102087    2.85343347801540
C        -1.85095862587140    4.43197481297348    8.86465531576866
H        -2.77861613032403    3.99315564577012    8.51019981346324
H        -1.81278162096426    5.47665073792051    8.56115693820984
H        -1.87065877072713    4.39644531514145    9.94991806382525
C         2.91969838538122    3.68532653180092    9.87802146879610
C         3.26832772644081    2.81768984441377   10.90395073271766
H         2.78033864300104    1.85709752384448   10.98051572608227
C         4.23205564041539    3.17657936483971   11.83051330457322
H         4.49169520861755    2.49427012714109   12.62483557072585
C         4.86047079732094    4.40624272805750   11.73651016409024
H         5.61227548561917    4.68695472602216   12.45726779643653
C         4.51920409174391    5.27735906258008   10.71547129674487
H         5.00345881949977    6.23880614096112   10.63952763583582
C         3.55303865799478    4.92041589073758    9.79192527843198
H         3.29176747589964    5.61811069900143    9.00721669742034
C         4.06844344107837    1.33786770822229    3.17911809142850
H         4.08503599947440    1.29663151365312    2.09410757853979
H         4.00584725210225    0.31817152639489    3.55369648077715
H         5.00716169812961    1.77820977415337    3.50068185916790
C        -0.71180787731491    2.05593562776589    2.16725902087464
C        -1.08322110289046    2.83383164242460    1.07929703416262
H        -0.60090258310230    3.78644775655855    0.91521399777752
C        -2.05958816641243    2.39412716419407    0.20210892324958
H        -2.33681153452314    3.00651111005973   -0.64178419437732
C        -2.67829167628960    1.17316968320967    0.40815787288431
H        -3.44011984662612    0.82983444758196   -0.27392057033934
C        -2.31437858523541    0.39144255095499    1.49174832598744
H        -2.79117294367465   -0.56262243583494    1.65575100485641
C        -1.33499018854007    0.82861522826552    2.36556455584901
H        -1.05907068170499    0.20023327745156    3.20120078033290

