91
CSD_code = YIPLOB | q = 1 | S = 0 | Stoichiometry = C40H46CoN4(1+) | MND = 6
Co        4.80419766700137    4.75442190690245   -0.00909982088983
N         3.73013644151713    6.45499138968947    0.17955537223862
H         4.21342645094316    7.11946157053901   -0.43348326852946
N         5.69222737337805    5.26975015325355    1.69582067955178
H         5.18847329340815    4.74500258606137    2.41776162834446
C         3.50864792098477    3.78340476098527    0.99724789397726
C         2.71072579972561    3.14293511115320    1.64532974731308
C         1.76291522958581    2.39487358953810    2.39202904922437
C         1.32850379248609    1.15255016266234    1.92961931563259
H         1.71850426751017    0.76250159308008    0.99830897373248
C         0.40682882456814    0.42568621487420    2.65760213564678
H         0.07610987853231   -0.53660088219553    2.29491187596204
C        -0.09128790068133    0.92613919023265    3.84981419197695
H        -0.81066063187758    0.35497347486829    4.41667195563929
C         0.33540085228607    2.16012618211019    4.31367120946152
H        -0.05274755319752    2.55242139101166    5.24226527673053
C         1.25709180604540    2.89379673923883    3.59235927850648
H         1.58971828228434    3.85831160927533    3.95324301765152
C         3.93646379329700    6.92510591521128    1.55727804617333
H         3.28607428491448    6.34305766987930    2.21659431194687
H         3.69719731469521    7.98660467479007    1.66597585940005
C         5.39381297614186    6.68953126788647    1.92029579434684
H         6.04138593832224    7.28024794371046    1.26563746187783
H         5.58825483264611    6.97940306350531    2.95847034169987
C         7.12438747324146    4.98514254843796    1.88789658522448
H         7.67420021361630    5.57067776305825    1.14248954525811
C         7.42106373919005    3.50007028036482    1.66420194997036
H         6.76583697596482    2.89220750825738    2.29332625903316
H         8.44540080270393    3.32217434290470    1.99290640868688
C         7.29646068512037    3.04828674920512    0.20736847760542
H         7.82124834296585    3.76165637982926   -0.43761636354744
C         7.92481706963465    1.66128954975002    0.05608387638909
H         8.00049839728588    1.36255897506700   -0.98495343585522
H         7.34754211222599    0.91496360758773    0.59876412766309
H         8.93108578392536    1.67048093732274    0.46415787124063
C         7.57820773902418    5.38583255683301    3.27703317960754
C         6.94893566723448    4.87166656790848    4.40567523099197
H         6.12277086406214    4.18009719390272    4.30738690167688
C         7.37681289042109    5.23087706355818    5.67122638577811
H         6.88120427249657    4.82450208901522    6.53947351530149
C         8.44009205712672    6.10490516827560    5.82322018742324
H         8.77445220522841    6.38205966358671    6.81060751154932
C         9.07326753253691    6.61876985719524    4.70471158791791
H         9.90351445937409    7.29860371672351    4.81662656487276
C         8.64227403082750    6.26258127161207    3.43841731394538
H         9.13858227496257    6.66502165746704    2.56736604842208
N         5.87811788939748    3.05405275406854   -0.19732581540271
H         5.39461537937321    2.38978830012587    0.41577402598585
N         3.91589634773240    4.23875503627817   -1.71346429766491
H         4.41840280479623    4.76337426382197   -2.43630742403067
C         5.67197588260310    2.58370274010517   -1.57497116284620
H         6.32219585602589    3.16574254308993   -2.23444386691073
H         5.91140902287556    1.52223013158700   -1.68355075378510
C         4.21455039143237    2.81896654873117   -1.93777813950531
H         3.56734313838562    2.22819363885859   -1.28280601662470
H         4.01980380489279    2.52878350862460   -2.97581140903585
C         2.48329638282847    4.52257421669165   -1.90386822668141
H         1.93482928330050    3.93759195745293   -1.15702855409340
C         2.18628889326535    6.00771218606164   -1.68109216790961
H         2.84097811397350    6.61541924432052   -2.31087111128451
H         1.16171341945522    6.18512151859944   -2.00931614836062
C         2.31161878735792    6.46042695654045   -0.22458561053979
H         1.78729529122627    5.74733040329557    0.42102570299967
C         1.68292333873767    7.84730252162111   -0.07358427651527
H         1.60741688118561    8.14625349734987    0.96740630160919
H         2.25996818129516    8.59358513230289   -0.61652813028048
H         0.67655847279296    7.83780004312128   -0.48146437385493
C         2.02804179505189    4.11947572110373   -3.29184423521707
C         2.65281739429687    4.63562348952273   -4.42208328971781
H         3.47616161778515    5.33080431386212   -4.32588141366474
C         2.22396909417630    4.27369909435081   -5.68653805857889
H         2.71615699937895    4.68154312891092   -6.55603472815400
C         1.16439641904708    3.39471499888833   -5.83584282670273
H         0.82951932565155    3.11513797350688   -6.82236793602403
C         0.53579909348352    2.87871138629107   -4.71574068006158
H        -0.29142540006971    2.19485860908834   -4.82553900178429
C         0.96768029031167    3.23775390677620   -3.45055720703149
H         0.47479258616205    2.83375844712428   -2.57829134335820
C         6.10144783064100    5.72681028923082   -1.01191267415853
C         6.90756157345753    6.37403732792319   -1.64285584544625
C         7.86450946291313    7.13042975193922   -2.36911951024723
C         8.28793887020776    8.37003631465116   -1.88921582829200
H         7.88180905776913    8.75120565337761   -0.96115616774396
C         9.21993145394976    9.10516728384438   -2.59546151252598
H         9.54304511452466   10.06447377575478   -2.21848779170173
C         9.73945763672214    8.61562669076371   -3.78313718109907
H        10.46772093564574    9.19240070386397   -4.33254444008245
C         9.32340173366948    7.38465879316176   -4.26444034255072
H         9.72787642319141    7.00146098210191   -5.18978581026298
C         8.39138440307751    6.64289557775231   -3.56499144892511
H         8.06635220233750    5.68118591742854   -3.93982932870781

