67
CSD_code = YIPPOD | q = 0 | S = 0 | Stoichiometry = C32H28Cl2O2P2Pt | MND = 4
Pt        2.22803621281082    1.58331752155238    2.44024208042700
Cl        0.63119984104986   -0.03514359244459    2.81525450828118
P         3.54438769551302    3.35779545579817    1.97282111528052
P         3.50210276254038   -0.18214529441598    1.86280681532417
C         2.65499176617848    4.45328182482701    0.84039736810742
C         3.11135268482678   -1.29754244760477    0.49770540488359
Cl        0.93837242734068    3.38583785201158    3.11698427737037
C         4.21870607902892    4.33703408226653    3.34680759571252
C         3.84210385213282    4.04993078458142    4.65194939986457
H         3.10866339966142    3.27307106929009    4.82994363402299
C         3.76587579585081   -1.27205019102127    3.29769899530917
C         3.42264839951532   -0.80416521142306    4.55927296343914
H         2.94828903293496    0.17059960984976    4.65160631014701
C         2.57592887177085    5.83102371380354    0.96440347338179
H         3.06793573525589    6.33214784046874    1.78528706144286
C         2.06565403589187   -2.20205469662289    0.66130720322661
H         1.52329729017243   -2.22095809567724    1.59535826259459
C         1.98163900868435    3.80158355949053   -0.18803304845886
H         2.02312326586209    2.71609911459487   -0.24078936063725
C         3.80076580334802   -1.23682758915998   -0.70833795075677
H         4.60859578123348   -0.53170418785870   -0.83005693917688
C         2.41673144149527   -2.99730184872066   -1.57501582226150
H         2.14708601837331   -3.66056275125239   -2.38373419218759
C         1.72340549756119   -3.04999525816352   -0.37549199676224
H         0.91343438713835   -3.75266768515128   -0.24878981247235
C         4.35600825695148   -2.52139108683856    3.15243979944243
H         4.62691849112582   -2.87168952577277    2.16592032656938
C         5.16195558279672    5.32810806574730    3.09354144876907
H         5.46502287531332    5.52823222340159    2.07440342453844
C         1.83749979713239    6.55523492038213    0.04324124283758
H         1.76667203515302    7.62883936914780    0.13970697141367
C         4.22809945979051   -2.84199250176082    5.52695477771136
H         4.39942987388620   -3.46108912498669    6.39521116298265
C         5.30907024588699    5.77237499720399    5.44603944663670
H         5.72900423593395    6.33882558512962    6.26411270970769
C         3.45279073954615   -2.09200829393937   -1.73894941539311
H         3.99120294480542   -2.04833833300064   -2.67454430141896
C         5.70131653493701    6.04678425353223    4.14493357732646
H         6.42715636078633    6.82316660772178    3.95093593575579
C         4.58336202999128   -3.30475171690208    4.26937206617702
H         5.03341428887717   -4.28065929883340    4.16017754777178
C         1.24937290730324    4.52881312655212   -1.10567529728597
H         0.72060960780713    4.02409394749780   -1.90086860037814
C         3.65058573797371   -1.59099884304144    5.67357773196258
H         3.37295286612331   -1.23423066296948    6.65410585381618
O         4.82774295508366    3.18624965014992    0.98277020530614
O         5.02866142789961    0.19273363666495    1.41983665337389
C         1.18108917873046    5.90897911691284   -0.99049334701006
H         0.60126340035715    6.48011801901712   -1.70055626278434
C         5.99319844696276    2.41618689085471    1.20539041096507
H         6.73410282882678    3.04890074633420    1.71844048314811
C         5.74625009524183    1.19327419332949    2.10506507584180
H         6.70979647304285    0.76604686422026    2.40047652273237
H         5.20908140960339    1.52486339863859    3.00751146619120
C         6.54209328522873    1.95734225679677   -0.12686635358300
C         7.88877114543333    1.63739175054212   -0.24200916316443
H         8.54309055406786    1.76046118794993    0.60943024116724
C         8.39278701489502    1.16577961122699   -1.44055315466212
H         9.44095374541133    0.91934124095945   -1.52189111337810
C         7.55651954510184    1.01199986268803   -2.53403292277098
H         7.95139975043428    0.64394577750672   -3.46922168840229
C         6.21552470084777    1.33495370839651   -2.42414775455114
H         5.55836225809034    1.21883132981532   -3.27327598682892
C         5.70798687682906    1.80393610200377   -1.22430705312452
H         4.66355109574546    2.06111877186358   -1.13704261294758
C         4.38375216141584    4.77242555361979    5.69974567060225
H         4.08414969243900    4.55789304322295    6.71459692884070

