59
CSD_code = YIPQUM | q = 0 | S = 0 | Stoichiometry = C17H34FeO5P2 | MND = 7
Fe       -0.82151927287691    1.64421096011204    3.11459157854920
P        -0.23862175092727    1.81576840425031    5.27035402861230
P         0.27408266388480    3.36945569824721    2.32954421411496
O         1.14905587823754   -0.03138490055002    4.96587628003369
O        -3.35331515068157    2.90022569494422    3.66477661377141
O         1.02136649975121    2.28838457384626    6.15548658639292
O        -1.01694078290232    3.27544068215004    5.45096229857864
O        -0.99839073045071    0.92951713795389    6.39894325253427
C         2.95834688445529   -0.23249046129838    3.41509106230326
H         3.53993421272424   -0.44935674456267    4.30741820857875
H         3.31538833788562    0.69780624460802    2.97736688976411
H         3.09930085434044   -1.02753471263156    2.68608777484873
C         1.49460961056864   -0.09011969156879    3.77155536438951
C         0.54277975535810    0.02320959742944    2.72701827973366
H         0.90218877957370   -0.11580579892326    1.71395060448277
C        -0.80767273196773   -0.38122950655369    3.04817694882888
H        -0.97475544844668   -1.06116036836277    3.87553754952178
C        -1.85075069569974    0.05682144972719    2.22928875541928
H        -2.87792202783740   -0.21687098751540    2.44558737419085
C        -1.54564523336488    1.02850427067564    1.24334657467690
H        -0.67954804008976    0.84760777880932    0.61161252665602
C        -2.67398220213210    1.66971295058761    0.48123189930824
H        -3.52066294778105    1.86652934241616    1.13231484147733
H        -3.00737284132080    1.02070551769891   -0.33151035551103
H        -2.35211591408309    2.61229320788830    0.04325818088577
C        -2.30020038987354    2.47530115484639    3.47294327054884
C         1.86549810744913    1.50405553017777    6.97461812089504
H         1.36667215876417    0.59100007914453    7.28995551193840
H         2.11051948526561    2.11643363998178    7.84544423418196
H         2.78016771988322    1.24890318763137    6.43804414105761
C        -1.20694894999955    3.88032568252587    6.71617574430495
H        -2.18910764388894    4.35674472123514    6.70911617315340
H        -0.43804449962957    4.63550278015702    6.89398016765779
H        -1.16839131192367    3.13758904063712    7.51550033194650
C        -2.22045301349213    0.28906399607243    6.11234970540776
H        -2.55915324068376    0.52817150651749    5.10021335062165
H        -2.97060332847041    0.62947165014856    6.82964823512747
H        -2.09098719766114   -0.79120767340420    6.21155596015885
C        -0.72434122812625    4.89993630517379    2.01018045805029
H        -0.16040621042368    5.58611958113944    1.37079660716992
H        -1.59655830013953    4.55587774941321    1.44677481670787
C        -1.18820582082530    5.61427846544668    3.27106115269599
H        -1.92749859585183    6.37384396666170    3.02198653103447
H        -0.35648540231406    6.09996069240537    3.77515917814807
H        -1.63212626692844    4.90400422709196    3.96020764218034
C         1.64631069266061    3.99091535009688    3.40375543531252
H         1.16894098949554    4.21255659051554    4.36126608369395
H         2.30224503890060    3.13337595646820    3.58200404549956
C         2.45363779709836    5.18739508106124    2.91306321134035
H         3.01255843523733    4.95046631102692    2.01099542761283
H         3.16734581148600    5.48579434693331    3.67962179770150
H         1.80978674126891    6.03782098901782    2.70462053373213
C         1.08906779888411    3.31234548064280    0.65593198786173
H         0.31114180091007    3.01792622291549   -0.05352823714016
H         1.40465739675153    4.32685962069753    0.39673130261156
C         2.27505769668184    2.36575086313222    0.54836598323939
H         2.68236998202415    2.38597673941947   -0.46199529914044
H         1.98029906197561    1.34705799825405    0.77616673313463
H         3.06559697927659    2.65324182743276    1.23742232940506

