44
CSD_code = YIPREX | q = 0 | S = 0 | Stoichiometry = C16H19FeO7P | MND = 6
Fe        3.95012617860821    0.48621548628169    1.98617791819946
P         3.29791870400884   -1.50955863094139    1.39910347381204
O         3.12928966075971    3.21064265070409    0.17366284431212
O         6.79438859020175    1.06621650111187    2.11335074230505
O         4.48035175672583   -0.09920547047569    4.77111953741920
O         4.47294094931788    0.77742543033818   -0.85267495029677
O         2.89786743401038   -2.68640930437088    2.45573811423505
O         2.11111471620129   -1.51240172022999    0.32654345567153
O         4.36938135720145   -2.39585438844152    0.58532032567552
C         3.97654076127262    4.53715311918616    1.97325080673807
H         4.35195817423187    5.18657942742460    1.18725248514841
H         4.79388640425256    4.23347212277354    2.62306880542095
H         3.24864309119291    5.08366395926245    2.57058279027446
C         3.31656178824548    3.31731840891634    1.37065004370149
C         2.88747139191032    2.30182361667494    2.34907906848505
H         2.93034017669312    2.63132084481084    3.38412417761273
C         1.95160962064407    1.32525653959360    1.95725435634438
H         1.63077034384179    1.38113753666027    0.91782827789721
C         0.94478416408543    0.72319594622050    2.83306601271293
C        -0.12784898613074    0.04156141307308    2.25152310708599
H        -0.17686604780687   -0.03358348606725    1.17482529598664
C        -1.11421156848271   -0.53395203299735    3.02899589259950
H        -1.93519839665454   -1.05569630826277    2.55777563730030
C        -1.05878446021287   -0.43659082592062    4.41007506055738
H        -1.83104302666183   -0.88146716105525    5.01962024214671
C        -0.00629120280247    0.24237123148567    5.00280753544628
H         0.04092755183692    0.32782918357961    6.07877392439522
C         0.98370973800053    0.81344175798977    4.22702194078921
H         1.79773403059141    1.33192884676523    4.71195306537838
C         5.66831962923801    0.83840127843335    2.06509961517005
C         4.16349348981755    0.13011158622327    3.68980585365373
C         4.18385995929686    0.74385506288682    0.24860835484661
C         2.06812907530429   -2.48327609335058    3.58228227038865
H         1.01611544109031   -2.44672366232088    3.29304955830970
H         2.31774793158194   -1.55393209417667    4.09506909857743
H         2.23679291284099   -3.32824588898543    4.25009849523913
C         1.58125219238198   -2.71724535127907   -0.22784672192085
H         1.22245225112019   -2.46976625967388   -1.22624611782014
H         0.75078581498724   -3.07393202126767    0.38416327094669
H         2.34608552969319   -3.48966334251463   -0.29213969428205
C         5.65915711898230   -2.63253701436168    1.11978917542388
H         6.26614221431032   -3.03375135468958    0.30894140573685
H         5.60914002868133   -3.35355141836364    1.93733043498574
H         6.10015351559095   -1.70037812064959    1.48762501339115

