33
CSD_code = YIPROH | q = 0 | S = 0 | Stoichiometry = C10H16Cl2N4Pt | MND = 4
Pt        2.98291609162101    7.99174296673037    2.56118131533789
Cl        1.97973089610292    8.17373223412119    4.63616758111359
Cl        3.98766153913100    7.81583504759324    0.48314958846083
N         1.41982051694202    7.22387624081255    1.87087734562888
N         4.55119381189001    8.75814059445877    3.24205660182254
N        -0.62247491682775    6.23747773707417    0.95113432164887
C         0.45204259711285    6.75802116437024    1.43455506067557
C         8.20168393711789   10.77969695084779    5.44646076948843
H         8.45641345393082   11.70709199053006    5.95388668015767
H         8.56975942016117    9.94265333421393    6.04055623837516
C        -2.53372011674991    4.91182141240115    0.74985891843327
H        -2.12815855555922    3.91626811666984    0.56661127137531
H        -3.56601298841582    4.81411947464877    1.07713867867732
C         5.53115082174413    9.25015818955906    3.61808796054166
C        -1.67383607484917    5.65087717158726    1.77184991484922
H        -2.24356117777291    6.44231985513655    2.27306902829361
H        -1.24969297500836    4.99391977006693    2.53412435597953
C         6.69830822048586   10.64335476344301    5.21903792369122
H         6.17415816893914   10.18741516505392    6.06162766549618
H         6.23916358917702   11.61673451317129    5.00887106938637
C         7.90760579994473    9.62924970424657    3.37451924075379
H         7.80420422736862    9.75421058548227    2.29470753274960
H         8.30701790631227    8.62734600603626    3.57275053864689
C        -2.38906539628273    5.77492870714624   -0.50347791380100
H        -3.01815085186676    6.66185308071904   -0.42088798101275
H        -2.65284479677203    5.24269700927582   -1.41425578094704
C        -0.91496319373262    6.17015806806483   -0.47472369342628
H        -0.28887716834971    5.40584843034451   -0.95013196384238
H        -0.71625047172985    7.12945139394482   -0.95713830268719
C         8.76919026924548   10.70580108181517    4.02880074780084
H         9.82617051628292   10.45124694798047    4.01146336721836
H         8.62996334145477   11.65997141345487    3.51967182885367
N         6.62135355894872    9.79158087898638    4.03950009025240

