50
CSD_code = YIPRUN | q = 1 | S = 0 | Stoichiometry = C24H15N7O3Re(1+) | MND = 6
Re        1.90396373477000    6.50015484159613   14.00717143875526
C         2.99278728029699    6.02951480967852   15.56589638496960
O         3.59294836381828    5.71866223355345   16.48407121909725
C         3.46404197003277    6.48199882096529   12.82372442442845
O         4.34145313559939    6.44131379946211   12.10079599664199
C         2.13929604168778    8.40143945243571   14.41742391671354
O         2.23401327150300    9.51527608233058   14.63764094682208
N         0.55593696323448    6.77678496579356   12.34071855784254
C         0.01034392333134    5.62695947413079   11.88820493889927
C        -0.94979922219247    5.59429694430852   10.85534959728564
C        -1.33008391830630    6.81878952501410   10.28154383487198
H        -2.05913626149178    6.83375638543226    9.48589888887178
C        -0.75608310254536    7.97787021826938   10.74667834943194
H        -1.01574310318530    8.93703397386786   10.32917984350720
C         0.18138931780644    7.91232168721330   11.77936514063568
H         0.64195687099758    8.81721805440085   12.15400163206898
C        -1.48329220326820    4.33999177514298   10.44003580985769
H        -2.21786586881755    4.33833868819178    9.64950323162142
N         1.37694134709906    4.47771797967476   13.46571571206818
C         0.44487883012908    4.40180982137223   12.49129443301808
C        -0.10061972379941    3.17750886110606   12.05186139910010
C         0.36002356676732    2.00180057881430   12.66775045430233
H        -0.03350882198822    1.04556712548365   12.35820921257936
C         1.31326248421330    2.09730780302121   13.65314749339369
H         1.69721103786137    1.21926559874219   14.14649392279448
C         1.79565623584036    3.35527573047755   14.02086546814507
H         2.55124910375298    3.44271521242487   14.79071530137591
C        -1.07819149510832    3.18228839792201   11.01502276749692
H        -1.48213960288074    2.23416868908150   10.69456592683984
N        -0.89809580577730    5.64831535690742   14.81901854144683
N         0.13489240667826    6.40885958891061   15.13546417106979
N        -0.06554025233450    7.04403929387418   16.22482757474337
N        -1.26861436223306    6.70794152172007   16.66145569308359
C        -1.75522174940820    7.23271185609225   17.90216602098275
H        -0.89686829571936    7.61542667266771   18.45274391960305
H        -2.24561569523038    6.44746145181110   18.47645764246252
H        -2.45145336082498    8.05457525906946   17.72678944230160
C        -1.79718446088434    5.82474190907714   15.77267085539638
C        -3.06889186008835    5.13483465717672   15.81331309201784
C        -3.16396605917576    3.92354028385812   15.11971214303203
H        -2.29859950059972    3.55423888882628   14.59062849957887
C        -4.34140647531883    3.20912256988921   15.12192468872010
H        -4.41627191290404    2.27014305877041   14.59520296577552
C        -5.44844874698143    3.70410605038334   15.81441252038241
C        -4.18325341437888    5.63350485405997   16.48908723759505
H        -4.14796181156355    6.58659116822899   16.99085922619934
C        -6.66088501581336    2.96960096767001   15.82223761792639
N        -7.63765589546489    2.37325472333516   15.82538133846550
C        -5.36619074789997    4.92170058517315   16.48954031438225
H        -6.23095713924264    5.30424175258881   17.00976025140208

