64
CSD_code = YIPRAQ | q = 0 | S = 0 | Stoichiometry = C16H39FeNO2P4S | MND = 6
Fe        2.67782371199720    9.49883228323073    2.28927603632802
S         0.58533401689960    8.71760585955994    1.74765025392785
P         2.11160874129635   11.56859726486760    2.48793144971012
P         2.14121616018377    9.25768406317663    4.41195465689033
P         4.85789513795200    9.61075223924773    2.50009756437256
P         2.89423549890790    9.56246868907816    0.13767206554191
O         3.35988354492325    7.59101373529801    2.10477477563297
O         3.58297129091057    6.19991095894826    3.82717519078201
N         1.58653275843444    6.35903314901511    2.77056627977845
C         2.91402942230691    6.71802500539824    2.93802948772739
C         0.83738252997775    6.90438970733693    1.68402116381385
H        -0.17184559473856    6.48967937146367    1.70263554497176
H         1.30440624888284    6.68016529903791    0.72270763483105
C         1.06986953091912    5.19181056952546    3.44772474990348
H         0.04659342355320    5.39600569422249    3.78291165397740
H         1.71216682918712    5.02718522687961    4.31650090440720
C         1.09309418706025    3.94519734053124    2.56372231320740
H         0.46827939321520    4.08138203292232    1.68304706537678
H         0.72551750911004    3.08855319764342    3.12339658299641
H         2.11171257336622    3.74170144945664    2.24166808624317
C         0.38097100230819   11.98154600265376    2.06073093366956
H        -0.25629777892018   11.15509382297558    2.37109007860590
H         0.29552467220148   12.07885163216204    0.98054247346931
H         0.07938769203782   12.91167273355001    2.54439129051730
C         2.95765130097329   13.06367033813502    1.82998842607669
H         3.15161438909807   12.96215696662992    0.76388041987603
H         3.90217315476669   13.20330769818334    2.35077581908261
H         2.32108097973644   13.93243840336923    1.99906454097269
C         2.13106578456287   11.99799901795977    4.27983985323352
H         3.17865572623113   12.05400029970989    4.59315444867110
H         1.65706140851285   12.96919529085982    4.45551437345796
C         1.42795980030862   10.86371584155378    4.99776133299376
H         0.36735295789186   10.85347723166670    4.72840463816907
H         1.51592558664316   10.93758732313786    6.08591792427566
C         0.85934800229658    8.14804620359018    5.09169809139278
H         1.28335113456822    7.15548881308404    5.22131676202853
H         0.01545618942237    8.10580233887505    4.40404007938517
H         0.53669345972969    8.54111799233204    6.05772333079630
C         3.45470619546805    8.97934388897278    5.65097268469048
H         4.23462781825387    9.73067789773701    5.53262722310438
H         3.87157884270824    7.98978226134871    5.46607668089962
H         3.03921925838859    9.02342002050195    6.65862754343535
C         5.82476563287883   11.13262388217027    2.90437143407152
H         5.51865305591381   11.51815051434960    3.87606236953549
H         5.65264427743454   11.89879677758182    2.15258936583889
H         6.88763442633275   10.89358247178033    2.93555865821853
C         5.85982517365752    8.39808738153174    3.43106136806070
H         6.77824525546635    8.21266696370056    2.87187968807455
H         5.30207056591167    7.46913099700406    3.54611897575211
H         6.10923635134072    8.80030339330642    4.41180069739700
C         5.49280985206776    9.32685429895493    0.78709556284887
H         6.54817111771825    9.61435469892602    0.73098697855047
H         5.40036798238525    8.25331754896630    0.60331401013444
C         4.62883678150800   10.10201160367515   -0.19621370552336
H         4.91780337469569    9.92109670078536   -1.23611908815631
H         4.69630645930007   11.17566994804554    0.00626955963653
C         1.89781348901081   10.64789550321433   -0.94118846501981
H         2.22080473051090   10.53561415553797   -1.97646985985610
H         1.99615751995117   11.68613009326536   -0.63466892134101
H         0.85707201281656   10.33931766838611   -0.83930896748834
C         2.83438334530414    8.04423596894462   -0.87653427084757
H         1.78963066572330    7.77831804826422   -1.03648700640129
H         3.34836670609594    7.23454747668720   -0.36331794171913
H         3.30828673238772    8.24200874910023   -1.83980285098261

