75
CSD_code = YIPXEB | q = 0 | S = 0 | Stoichiometry = C36H30CrN8 | MND = 6
Cr        3.83835746474698    7.01143348865568   19.03344614848790
N         5.15728096351983    8.38284684473282   18.92842396912815
N         3.84322387697382    7.24729310199300   17.20341840149072
N         3.03191409677885    6.60182914206624   16.38281983204410
N         2.32993131613412    5.83898268097897   18.43785767081031
N         2.51433615214108    8.40800283267861   19.58273998315158
N         3.02212116901517    7.55086829789250   21.65768381153222
N         3.74736251007428    6.78317353592811   20.86215278411574
N         4.92208662511040    5.45061472936101   19.17797236203375
C         5.61650926758917    9.07581677692062   20.04445220694301
C         6.33696102103393    8.40289220205322   21.03293016592632
H         6.60053535525893    7.36568217723402   20.87547668345423
C         6.70467079095633    9.05398500028028   22.19115882601266
H         7.25828642466208    8.51868492757938   22.94938790053986
C         6.37121950819999   10.38847503647365   22.40258627510517
C         5.66267921405720   11.05692927149124   21.41337898068739
H         5.38909247846176   12.09261805189104   21.55879848528151
C         5.29275935603714   10.41820022479915   20.24543834212157
H         4.72102375849352   10.94214415806828   19.49119170403842
C         6.76480561083034   11.07183434901783   23.67696846660357
H         6.52848165916855   12.13222695711075   23.64030901314234
H         7.83251981923356   10.95710494956643   23.85817528650156
H         6.23551880213936   10.62850180286836   24.52004878057582
C         5.43108134937893    8.83926997454521   17.67893197355005
C         6.35333904092596    9.82186660778543   17.30640747062403
H         6.93944909116149   10.32503875784994   18.06161050613312
C         6.51841549925579   10.12372301023607   15.96745366377262
H         7.23422928483009   10.88107350192015   15.68259693495663
C         5.78678315448040    9.46903629035230   14.98165032642172
H         5.93884488837928    9.72518528784095   13.94404109215558
C         4.87243209049909    8.48937794029390   15.32309586287529
H         4.29712089217615    7.95888679535499   14.58066596880316
C         4.69745490634065    8.17137724498067   16.66522927850280
C         2.22544096100876    5.80597777767601   17.07438569850157
C         1.28750046102615    4.96405306042126   16.43086887235555
H         1.25009142427691    4.98097133039280   15.35448919080143
C         0.48051988704450    4.16670554056279   17.18748083277483
H        -0.24018363171732    3.50830177509766   16.72608437464152
C         0.59584362522199    4.21004644439448   18.58827864140077
H        -0.02823019406953    3.59124301286580   19.21225815020373
C         1.51928843137354    5.05179877785795   19.15281939196575
H         1.63404076251158    5.10999121939904   20.22942174841207
C         5.30391807405982    4.69101394796210   18.07624214412362
C         6.15098270264608    5.24100523861599   17.11237388759935
H         6.56623537531261    6.22573348558376   17.27951853830802
C         6.45099969720663    4.53657535845141   15.96593192842631
H         7.10462463696886    4.97720142091243   15.22662630002374
C         5.92285332732406    3.26855328959356   15.74228905859162
C         5.08815299205217    2.72119406351264   16.70716816495202
H         4.66302059130151    1.73947021028424   16.55182465949611
C         4.78356958230226    3.41389688788374   17.86317826463734
H         4.11374863262951    2.98729477395563   18.59776753983789
C         6.24889809892851    2.52725625323653   14.48128767366007
H         5.84181667780359    3.05451822714101   13.61898247502463
H         5.83300317880740    1.52312953721953   14.50020062580750
H         7.32753635057765    2.45661018354356   14.34799092770865
C         5.08131883533156    4.96115662960379   20.43484242706608
C         5.82691262332424    3.84817593767056   20.83512468163642
H         6.35136027139136    3.25732753375775   20.09831669958569
C         5.90019658706555    3.52878655056310   22.17817426934722
H         6.47985834404494    2.67015152341849   22.48452880369118
C         5.24848484829008    4.29275146828331   23.14115875921447
H         5.32562862514235    4.01951479830767   24.18267617722908
C         4.50943650262958    5.40181651604140   22.77224044229084
H         4.00059439236138    6.01807746172990   23.49674416221180
C         4.42900227780240    5.73867023738509   21.42570950193811
C         2.37337405142237    8.46155893272294   20.94225505211427
C         1.56040641700484    9.44319221304411   21.55719053215432
H         1.48688464984441    9.43596849911841   22.63181543575198
C         0.91402779175694   10.35567059623256   20.77678860849027
H         0.29243083839142   11.12134855211667   21.21627736942286
C         1.06519800897866   10.29004387485038   19.38027973668887
H         0.56689215513755   10.99771273691827   18.73791478027069
C         1.86125781894361    9.31100903700820   18.84381338415133
H         1.99923587848395    9.23184913386362   17.77128092997355

