73
CSD_code = YIQCAC | q = 0 | S = 0 | Stoichiometry = C32H34MoO4P2 | MND = 6
Mo        0.00011582017939    0.00002884501866    0.00056548961852
P        -0.62988367705020    1.41667474611003    1.80158275390294
O         3.00725598367718    0.44854639338284    0.59381452341553
O         0.10457203203228   -2.35514984657633    2.01038278764556
C         1.89434216483554    0.30401292642178    0.37285371902025
C         0.05190024085824   -1.49738269281061    1.25561443032057
C        -2.38885068058493    1.77243117531411    1.98542853693524
C        -2.85335966938236    1.24249950864854    3.13805506382254
C        -1.81747514555487    0.63604626196514    3.97901725355984
C        -0.57265735113300    0.70563474273688    3.45888120618612
C        -3.14664215838483    2.49067308839488    0.91700310573000
H        -3.96931608284433    1.88503451163118    0.53428508238761
H        -2.47421076520300    2.72326189816404    0.08864868469771
H        -3.56090703157210    3.42607504174386    1.29588882422891
C        -4.28087005679253    1.25960555944090    3.57713765574279
H        -4.91185407080851    1.71995596792309    2.82246671689164
H        -4.38724197674702    1.81752327012705    4.50744586333131
H        -4.63325276562762    0.24427996087848    3.75551806993360
C        -2.16452587652704    0.02127614843739    5.29527024225111
H        -1.27506416678175   -0.35281282562270    5.79372548659038
H        -2.85837740206962   -0.80686918382480    5.15324674676626
H        -2.64679734948846    0.75270642539584    5.94324840026702
C         0.71198187607556    0.22238855862849    4.04885226118139
H         0.95112124560794    0.76965053650202    4.96181163468264
H         1.52197543000368    0.37760277077209    3.33338030571871
H         0.66474439810414   -0.84003387243213    4.29181897637516
C         0.13693410037306    3.04726279944043    2.04700143909905
C         1.13802033791698    3.49057063816970    1.19438652204527
H         1.46087209391425    2.86206585616203    0.37403410591638
C         1.71865954344980    4.73173987271807    1.39520059918595
H         2.49828081500504    5.07376755721514    0.73021492602684
C         1.30149445386353    5.53152952339952    2.44470718266539
H         1.75509399524569    6.49942547542368    2.60005404066740
C         0.30041721260886    5.09125993952774    3.29840395822132
H        -0.02449087611633    5.71708058129364    4.11711146154369
C        -0.28091793011311    3.85431852988947    3.10318308857956
H        -1.06175844121754    3.49994651781381    3.76262876843406
P         0.62972488846108   -1.41618771742636   -1.80125566487593
C         2.38875339747358   -1.77199361319795   -1.98467174468345
C         2.85330441124546   -1.24291896297486   -3.13767645985660
C         1.81754364949570   -0.63661393274208   -3.97891933637638
C         0.57276006372472   -0.70547963937097   -3.45865576966942
C        -0.13673916076633   -3.04691333927069   -2.04695728153916
C        -1.13858950813805   -3.49015904282275   -1.19522185913250
H        -1.46194485222830   -2.86177547377586   -0.37497102013116
C        -1.71934683568119   -4.73116048627704   -1.39677833988065
H        -2.49965819092889   -5.07310988048557   -0.73256363194997
C        -1.30146033057602   -5.53086193155227   -2.44606127514361
H        -1.75520210101552   -6.49858957748628   -2.60202712419852
C        -0.29946170030245   -5.09072011714193   -3.29874727944499
H         0.02608307240783   -5.71648559868208   -4.11724351771110
C         0.28194669493642   -3.85394216320796   -3.10281885515947
H         1.06342698938197   -3.49963386733756   -3.76153446714018
C        -0.71182998729744   -0.22202685642673   -4.04850590613317
H        -0.95049048511328   -0.76841739507922   -4.96212685482762
H        -1.52194726975459   -0.37824326238462   -3.33335187562702
H        -0.66475963936717    0.84070636809617   -4.29026438699851
C         2.16463179176491   -0.02272038546505   -5.29555225831914
H         1.27523931492676    0.35167507237904   -5.79389968207087
H         2.85906493885319    0.80504266506645   -5.15418715104006
H         2.64620866971367   -0.75484795275668   -5.94326633499513
C         4.28074805498483   -1.26092955828298   -3.57695151664236
H         4.91166560671413   -1.72104525746644   -2.82207828590380
H         4.38671402432171   -1.81953215242027   -4.50689917071257
H         4.63354985435396   -0.24588999027877   -3.75609044787287
C         3.14652022120214   -2.48985019589805   -0.91593589774000
H         3.96939477541302   -1.88418402499608   -0.53368556495919
H         2.47418208610651   -2.72180005917495   -0.08732492774813
H         3.56053832720548   -3.42558054392752   -1.29428302187275
C        -1.89393278795976   -0.30313649361839   -0.37359401365606
O        -3.00672634335630   -0.44803271761989   -0.59504073285587
C        -0.05365856639991    1.49771948500061   -1.25418214912933
O        -0.10558134355761    2.35501139157553   -2.00954610759205

