99
CSD_code = YIQLEP | q = 0 | S = 0 | Stoichiometry = C38H55O5V | MND = 5
V        18.30002347633798   10.69428006353596    2.24503850362978
O        17.03550441873905    9.90118214297695    2.91156783996685
O        17.54312269307649   11.14491776161513    0.47388182651524
O        19.83883082951759   11.19336275973028    2.05468787887624
O        18.81471753558385    8.68452100857940    1.34141906334226
O        17.36594942028794   12.62157553196444    3.29866133805699
C        16.29450312861680    8.86131866347759    3.19229303857756
C        16.07161888550093    8.37924656447590    4.50666794844513
C        15.26585225308080    7.25865408215952    4.65112394979563
H        15.06700211631694    6.86570126977905    5.63484855213064
C        14.69416343670649    6.60686992063645    3.57126880036725
H        14.07123560381637    5.74043337419096    3.73673907324806
C        14.93071992034315    7.06768624703380    2.28842055996459
H        14.50048842197668    6.56280321622537    1.43552670333690
C        15.72087278971621    8.18023153775959    2.10600769474376
H        15.93638908440465    8.56648078390870    1.11919522628443
C        16.71779652258902    9.06409575598735    5.70672594507849
C        16.36344547998241    8.39384479786058    7.03883726236464
H        15.29243900738732    8.42948099074746    7.22385917013592
H        16.86130952225703    8.92289378937441    7.84967011056620
H        16.69599458167926    7.35857305785592    7.06152387592717
C        16.25875600505192   10.52672278251286    5.77284348148589
H        16.62460214471736   11.07243947363314    4.90682445317601
H        16.64872627008020   11.00250972580837    6.67167230537478
H        15.17141894860432   10.58171033011168    5.79650318035443
C        18.24410498170104    9.01956420402052    5.54392740242360
H        18.54212675800201    9.53748084810812    4.62961558832723
H        18.58789925463837    7.98651382488688    5.49916494456067
H        18.72487509451836    9.50743831570175    6.39055851027181
C        17.30664851644387   12.35918325405612    0.05226590686280
C        18.17901977018030   13.41345992213153    0.38219394912791
H        19.02372558436048   13.18177282895154    1.01913075762984
C        17.99103558237178   14.69875651414527   -0.07879902962612
H        18.68892146295602   15.47946460360838    0.19574451267579
C        16.91327164892232   14.97767026214995   -0.89820203442516
H        16.74799661697423   15.97791538792125   -1.27126604663094
C        16.04075887339688   13.95600833489984   -1.24195085658203
H        15.20926603218656   14.20495277621913   -1.88194609663625
C        16.19648190559524   12.65504690637897   -0.79417005428254
C        15.20344600604899   11.55695586253379   -1.15581094313511
C        14.10392020917930   12.02866689583676   -2.11328729649793
H        13.50451073341570   12.82131468948049   -1.67078060844492
H        13.44114876633233   11.19359004871892   -2.33415908020280
H        14.52521740881004   12.38171624780146   -3.05198853898794
C        14.53304566912479   11.06847366393112    0.13659730536760
H        13.93637786441355   11.86684627590095    0.57655824770154
H        15.28728283284710   10.76006698392264    0.85656188641524
H        13.87831495901102   10.22326459222659   -0.06920371930940
C        15.94386458654742   10.39352244643796   -1.82898841205796
H        16.43709020933851   10.73722410387252   -2.73665559715665
H        15.24356311980263    9.60211200181442   -2.09203294953825
H        16.69401395850928    9.99225871215041   -1.15399402922725
C        21.06509712014803   11.47319840174255    1.69247804400858
C        22.16961381737078   11.48051771732052    2.58189922888480
C        23.41058641774879   11.82112959925654    2.06397876344202
H        24.27125735517518   11.84465649636672    2.71216009816438
C        23.60093787426404   12.13645803495376    0.72876849715711
H        24.58681443674007   12.39763404896323    0.37459166161790
C        22.52700740913688   12.10592670579662   -0.14206910981163
H        22.65893531609068   12.33747138608153   -1.18860766560446
C        21.27790716954797   11.77878472876581    0.33677024918078
H        20.41929718477142   11.75240063071699   -0.32124990340940
C        21.99485773591084   11.06497072501058    4.03823335963210
C        20.91613410223355   11.92235519385935    4.71429505108583
H        21.18065787843174   12.97690491358474    4.64815001737393
H        20.83343941993789   11.65376578258666    5.76638227777422
H        19.94422049921935   11.77122780412722    4.24307746801536
C        21.57258785740477    9.58888103852739    4.05262581136884
H        21.38610826429744    9.25532408707157    5.07187943972038
H        22.36291688313097    8.97295174128080    3.62547789913957
H        20.66476712465711    9.45374174201955    3.46518423975210
C        23.28137036602497   11.20254629017534    4.86001090030710
H        23.63108904346106   12.23231729163370    4.87211942210308
H        24.07051529457711   10.56210769383855    4.47331748246797
H        23.08279920285369   10.90169771344991    5.88708910707270
C        19.26139265078420    8.62825495533277    0.00189471790893
H        19.17672695624832    9.62870693393728   -0.41949608859205
H        18.62951902170411    7.92668009790151   -0.56518716744369
C        20.69302126201893    8.09711072010338    0.10264342978492
H        21.37593998236261    8.91809848455221    0.32584786755629
H        21.01783681710315    7.61037618827632   -0.81394933018961
C        20.60119212952243    7.12718024881613    1.29204626639196
H        20.61976247166598    6.08853456108492    0.96559408127839
H        21.42043790880586    7.27926048945157    1.99162870403699
C        19.24020280994880    7.47161505011887    1.93290272482895
H        18.50028591773908    6.68750775680164    1.70898612854703
H        19.28696940894290    7.60609991201193    3.01452404114589
C        18.02689536578955   13.79769123758807    3.76795509096269
H        18.94970308459691   13.95373866602252    3.20217796871192
H        18.27816494370427   13.64434866241444    4.82742491441494
C        17.04114557881802   14.95412645671393    3.60329162783221
H        17.14374042875945   15.39725602783583    2.61226117135781
H        17.18155888358816   15.72364158629281    4.35895306000048
C        15.70175511200750   14.23198193742535    3.71054253119118
H        15.46370033895811   14.01577686350639    4.75347345616717
H        14.88025386149064   14.78341999565606    3.26098219412863
C        16.01827421873159   12.94955973204921    2.95115470054711
H        15.38515190113161   12.10161424913843    3.22429541959119
H        15.94564027135923   13.12247328101471    1.87119865046714

