70
CSD_code = YIQLOZ | q = 0 | S = 0 | Stoichiometry = C26H38ClO4V | MND = 5
V        14.12921228332511    8.26045469118055    4.68610736040667
Cl       14.07176658397091    6.28709110401625    5.83720770157150
O        15.71750643179200    8.50086199845930    4.70554345574728
O        12.54413634624996    8.42412541229584    4.44207700643833
O        14.00202579076274    9.53220274564692    6.51701908623632
O        14.31549416384812    7.06102625609945    2.75434876940112
C        16.93013027078104    8.98704021463653    4.68861238833936
C        18.01064747768796    8.28781277116190    5.25572991412418
C        19.27252701570676    8.85786556884444    5.21538621071278
C        19.50141348423134   10.09669891296825    4.63367170321251
C        18.42451629240358   10.77831686427986    4.07978657646470
C        17.14880602134495   10.24759768606096    4.09635609647545
C        17.78817607387672    6.94152257317518    5.88080257453087
C        20.87530737034130   10.69838605535273    4.62796028495292
C        15.97390005694503   10.96100456813078    3.49578980571092
C        11.32210702984812    8.70483609644793    4.06807911010124
C        10.21528388406289    8.09443913952041    4.68802449188008
C         8.93976001864191    8.42014013901263    4.25945047995260
C         8.71924587467636    9.32769870126122    3.23278255628107
C         9.81959987399051    9.91703107962307    2.62424312040167
C        11.11208674935641    9.62320103462060    3.01937388994605
C        10.42922550086762    7.11249788792007    5.80314915244229
C         7.32499687820472    9.67652758763098    2.80441400858293
C        12.30005670609423   10.26184116389418    2.35958771488051
C        14.21648706426113    8.88821771996557    7.76389804207319
C        13.99223927022555    9.98149440742985    8.81904867999735
C        13.08892318597630   10.99733952305557    8.09690492935389
C        12.87561405897503   10.36136081061259    6.71491738398525
C        15.47344951748301    6.24004202017454    2.71886411729554
C        15.24858704484571    5.28881631562031    1.53514047059762
C        13.71578215216096    5.21734854112458    1.42522691564137
C        13.23289940288023    6.16840276117638    2.53136367322391
H        20.09987743539444    8.31557205928602    5.65241768056620
H        18.58486756350332   11.74642359203560    3.62475543868621
H        18.28706131934369    6.88098661865996    6.84685900545351
H        18.19693758371426    6.15655481128934    5.24286456652654
H        16.72360959835970    6.75125545132737    6.01710122750054
H        20.99208298555546   11.39089611089121    3.79747366377029
H        21.63609608443104    9.92465543791192    4.55190811833387
H        21.04791333567585   11.24902920025418    5.55375451566989
H        15.10360522115220   10.85838504268204    4.15270786635417
H        16.19177808796744   12.01605114409757    3.34641560133618
H        15.71978702096707   10.51752272740911    2.52934469259338
H         8.09488307776962    7.94687491261871    4.74072690348951
H         9.66762088854308   10.62141557454756    1.81762815456442
H         9.80317149014884    6.23325961219629    5.66192661370631
H        10.16155242397432    7.56126082593873    6.76171964965198
H        11.47246448863692    6.79858231286169    5.84574560005614
H         7.30829401808228   10.00372311727624    1.76738185899823
H         6.93440303348049   10.48752218841023    3.42070314824400
H         6.66130563148418    8.82195361477443    2.91559567400884
H        12.08761710075781   10.48333685131727    1.31553199260777
H        13.16679931469752    9.59613541137648    2.41839154053624
H        12.55396228223903   11.19973015521689    2.85967971970887
H        15.22926509487137    8.48092833229082    7.75449197067058
H        13.49736906126527    8.06700091698831    7.88874885217750
H        13.52383202657929    9.57471361542477    9.71249015923935
H        14.93769752412246   10.43987972445351    9.10505762676729
H        12.14255771725062   11.15194526324016    8.61065275130938
H        13.58922386642160   11.96012150236249    8.00086586218384
H        12.83476435605337   11.08759000834935    5.89953784183078
H        11.95591669648445    9.75700271026941    6.70758682696846
H        16.34309271254382    6.89061708069395    2.60115582134025
H        15.55534510372791    5.67695377581270    3.65855987769539
H        15.69667191701899    4.31575453230015    1.72232330269778
H        15.68357254335963    5.69945001718455    0.62443470244579
H        13.37970262740384    5.55975868340597    0.44722607005489
H        13.33754606525130    4.21029456946606    1.58512716288767
H        12.35969863303212    6.76025484863939    2.24703166031796
H        13.01724419288431    5.61276529531546    3.45430860814038

