86
CSD_code = YIQNAP | q = 0 | S = 0 | Stoichiometry = C30H46BN4O2Si2Y | MND = 9
Y        -2.92945394854952    0.66777784842887   12.87435854389163
Si       -3.98062215850328   -3.14563139678665   12.37097895931392
O        -5.51250986516786    0.82710691989402   12.10581765053617
N        -3.07811104028804   -1.83241191832721   13.01713000238831
B        -1.28964339436919    1.06038147655689   10.76681946607014
H        -1.31540357678490    2.09475843138971   10.19389005845564
H        -2.68922294097672    0.80168081757550   11.07283575988307
H        -0.63436739859909    1.12380537472677   11.79244913372249
H        -0.97435483366883    0.14170853910713   10.09281585518631
C        -2.28019519249737   -1.82953728923275   14.07383613564805
Si       -3.91811210564176    4.55219730468623   12.61267541527686
O        -4.84479319115059    0.38125293071104   14.76635676037995
N        -1.79272656920785   -0.64033705482268   14.36251198107476
C        -2.01073665327166   -3.06592384191496   14.84675273123520
N        -2.04054711367034    1.83010080161835   14.62888166964494
C        -2.91453873264386   -3.49593994259827   15.81060675401295
H        -3.80412886420833   -2.91270641587257   15.99980442915146
N        -3.29158907109045    3.13556360318071   13.36442757643533
C        -2.67636367509350   -4.66288198352063   16.51501747169062
H        -3.38110424448712   -4.99236569460606   17.26499178531605
C        -1.53901457899214   -5.41012559708433   16.25865423407112
H        -1.35616744717910   -6.32264219628790   16.80693642247245
C        -0.63641228114808   -4.98580719733013   15.29710618878854
H         0.25073443423562   -5.56815062625035   15.09507959109795
C        -0.86790065938270   -3.81718991414240   14.59434799751351
H        -0.16676409760347   -3.47810730574828   13.84579024669308
C        -4.19701865181887   -2.71066507965829   10.51923666008760
H        -3.92510598594613   -1.67542982019134   10.32971612576879
H        -5.21739433479627   -2.86331939872877   10.18206698610748
H        -3.56000401608321   -3.33267941762505    9.89933490897035
C        -5.68817166822457   -3.18823735925041   13.25798929609193
H        -5.88960974268309   -2.23254522668149   13.73478972855538
H        -5.70665477862312   -3.94916900871987   14.03222310396434
H        -6.50193437104098   -3.40365884129918   12.57243416618923
C        -3.24670762920981   -4.90903337436070   12.46504740102320
H        -2.22167814427384   -4.92442599340378   12.10784746615923
H        -3.81882934891898   -5.59763527127759   11.85049841360646
H        -3.24419252162650   -5.29600195478706   13.47915499945467
C        -1.11875526595011   -0.15218076330896   15.46773539273853
C        -1.24295581063685    1.26978091160866   15.60803402368895
C        -0.62778210984332    1.90174940245683   16.68258451012711
H        -0.72383862383523    2.96906709779037   16.81115169073264
C         0.10604262122252    1.16305895163142   17.59848510080299
H         0.58093095969493    1.66765878038701   18.42734983818519
C         0.23141237523754   -0.20707126460659   17.45867224493604
H         0.80720030544419   -0.77356004008828   18.17601632223711
C        -0.37888988290718   -0.86635997798915   16.40206845805672
H        -0.27317590235785   -1.93598265956804   16.30449369654633
C        -4.43945078805914    3.96595926665040   10.87369742888830
H        -3.59761317628903    3.52917557839296   10.34521304845837
H        -4.81629885842203    4.79012424410482   10.27696142902905
H        -5.22026155696046    3.21512800186211   10.93099586551314
C        -5.48746702417884    5.21432135583902   13.50569598281126
H        -6.26201734882783    4.45655818277857   13.58955937954401
H        -5.91021372843006    6.04847393089144   12.95533630018965
H        -5.26006041936232    5.56907098792730   14.50612077136122
C        -2.71914353649139    6.02997971767064   12.43280067734814
H        -1.74536202666274    5.69864079564946   12.08581630133289
H        -2.57314499699184    6.54748317751597   13.37602897367535
H        -3.09511648611098    6.75283353911308   11.71535213308213
C        -2.44014832324940    3.06030370011191   14.37821573129910
C        -1.99867031945971    4.26553534756491   15.11974018307074
C        -2.83455274076155    4.87533791676759   16.04722228635044
H        -3.80509707759152    4.44567586889482   16.25179986753717
C        -2.42277115597207    6.01855192136227   16.70930722276183
H        -3.07604016752658    6.48716624167348   17.43129479727625
C        -1.17670205961976    6.56236194025990   16.44705492316339
H        -0.85828227044756    7.45695843677149   16.96176356262119
C        -0.33835212336322    5.95566802631178   15.52558242918895
H         0.63481433612584    6.37751021368492   15.32155714020607
C        -0.74392722347600    4.81034786939369   14.86547770522328
H        -0.09483501477962    4.32850540514071   14.14914534533622
C        -6.04443419189908    0.44541432479548   10.84552391500358
H        -6.87402420903631    1.10481528674214   10.56336539002605
H        -6.39793325290949   -0.59052641060684   10.87057905773513
H        -5.24261787446587    0.54131511223048   10.11562402374747
C        -6.51161764394728    0.80661643068213   13.10936227723420
H        -6.90474969372724   -0.21563126600796   13.21712201315793
H        -7.33704455034177    1.48035408962513   12.83289444038074
C        -5.90574915794698    1.26630082234443   14.42936244272122
H        -5.51894997201530    2.29070845341601   14.32544790868754
H        -6.68201300347561    1.23597328919994   15.20750358093643
C        -4.50544468627240    0.46075742067283   16.14168054724335
H        -5.36578971640937    0.18084010257894   16.76266894656532
H        -4.17516405387387    1.46848749097042   16.41365449589910
H        -3.68819217966407   -0.23783217863146   16.31016812139952

