63
CSD_code = YIQPEU | q = 0 | S = 0 | Stoichiometry = C22H30N2NiO8 | MND = 6
Ni        2.20105285224532    4.07619531463678    5.41024229772207
C        -0.58259612009399    4.11333949794396    6.45776571011087
H        -0.64264035032158    5.20391057965099    6.45697691070565
H        -1.41506480220120    3.72717616963903    7.05895912785556
C        -0.71058013994999    3.60658177201180    5.01683865737905
H        -0.60322688646788    2.51960369711235    5.01230846604516
H        -1.70643986001440    3.85169353559174    4.62737105335934
C         1.13955253894859    4.73642035051684    8.01871315473168
H         2.00329447560986    4.35418054515173    8.56754150828283
H         0.34967163884924    5.00185528033391    8.73171336073349
C         1.63688256882581    5.99152520859952    7.26168960208528
C         0.69421980145307    2.36460088502128    7.60278186964141
H         1.70011753334945    2.16853263762307    7.98047381851560
H         0.50020579605165    1.66937693907490    6.78290670551201
C        -0.31419089037528    2.14865408521192    8.70231881274243
C        -1.56565726187253    1.61600259287252    8.42585398238911
H        -1.80998968141368    1.31865077734372    7.41538435541206
C        -2.51173400548916    1.43231493878650    9.42083677718594
H        -3.47003332260311    1.01160563903756    9.16000593875294
C        -2.21379464301355    1.78329358294359   10.73240479580862
C        -0.95247911677464    2.30773545486920   11.02157223531507
H        -0.72788492978394    2.56450263291160   12.04450694909741
C        -0.02139767488508    2.48382528032555   10.02202961690532
H         0.95204444031498    2.87698005325014   10.27338120443082
C        -4.33758735116146    1.10893237948014   11.56805498100476
H        -4.92311460766997    1.72974246608313   10.88214763693250
H        -4.82388791255043    1.09358499041597   12.54206633031932
H        -4.28071864751367    0.08798880786915   11.17672970511118
C         0.68782789912117    3.22299536865741    3.09660115672421
H         1.34050828428899    3.72034506853722    2.37545860567486
H        -0.19325666805146    2.83143544806480    2.57364653836349
C         1.52186926488055    2.06690355047289    3.70037553091838
C        -0.00545318021746    5.50666299801636    3.64087077323198
H         0.85140149481034    5.84905410754842    3.05641864455181
H        -0.12186779582851    6.17804673012654    4.49443462962004
C        -1.25027980603510    5.54223621806751    2.79144198286159
C        -1.20253768047748    5.24192960640362    1.43763956205309
H        -0.25594079586413    5.01087174907028    0.97206643912687
C        -2.34447621163820    5.24329510152224    0.65504217033175
H        -2.25938865600055    5.00554038696351   -0.39342589510596
C        -3.57504545966512    5.55323057688910    1.22325557561233
C        -3.63067801724763    5.87247795469250    2.58094640869251
H        -4.58749329383672    6.12642225231533    3.00878650151509
C        -2.48543078064213    5.86758594278422    3.34752998922612
H        -2.54857972246331    6.13843448080380    4.39205322194515
C        -4.76561984944034    5.29016305704085   -0.82008517636323
H        -4.15485600221364    6.00129164710383   -1.38566127176045
H        -5.80391303008339    5.37823775646502   -1.13569582847922
H        -4.41397695520869    4.27196871255763   -1.01545440763867
N         0.70743778811134    3.73010060500764    7.04212766874038
N         0.34055199717361    4.16963150387331    4.16205795725280
O         2.17382545985521    5.74735300789093    6.12421602085651
O         1.52788351825420    7.10140272980355    7.74085760300423
O        -3.05782915336202    1.64912475495218   11.79032023116400
O         2.26025277178519    2.40520085211109    4.69061295347810
O         1.47014884874747    0.94585682297555    3.23705804484176
O        -4.75985723275971    5.58441031865311    0.55590120709054
O         3.91193576358729    3.24252772742328    6.67943418919889
H         4.76239622104280    3.55294498889005    6.35636279010515
H         3.77812271313599    2.35088898123244    6.32738897343050
O         3.43860585992167    5.13108214754792    3.80276624434640
H         4.37539974235485    4.95714456989293    3.93078265378292
H         3.25208922247717    5.99849618131624    4.18999274751213

