85
CSD_code = YIQQAQ | q = 0 | S = 0 | Stoichiometry = C30H46N2P6Zn | MND = 4
Zn        5.00331074172853    1.30932298036431    1.37390807866961
P         6.12476942384164    3.21423438528446    0.43258182327268
P         5.21991244622233    5.98479496886561    1.18880930962999
P         4.60421355005069    3.82745541778302   -0.88488682782677
P         3.59327766069232    1.11472073307631    3.30542883981063
P         0.81026804005784    0.14584619562676    2.65961434385834
P         3.55706073415821   -0.98864011236896    3.37889109789677
N         4.17598624132952    0.31746626123718   -0.39907984572913
N         6.77540951656750    0.02874253429533    1.74922128782587
C         6.11818815590953    4.55657528673142    1.57544126827280
C         4.37470697773409    5.41762239366886   -0.25526692721163
C         7.06280295199885    4.58416555423474    2.76371027244603
C         6.32694230794570    5.16645754852965    3.97406675878870
H         5.97390443774562    6.17255939692593    3.75386612686382
H         6.99056740926756    5.21015197386361    4.83583868790095
H         5.46787904675524    4.54672382346199    4.22449586185889
C         8.26025668048096    5.47599734274455    2.41377321924610
H         7.91965061826814    6.48420229941917    2.18389752688263
H         8.77807134907846    5.08151658920238    1.54091439622837
H         8.95933660546013    5.52170126356230    3.24705967721686
C         7.56942017026175    3.18816460553019    3.12472734104617
H         8.12192763456718    2.75289320465371    2.29205256635457
H         6.73229980265945    2.53233346633530    3.37290704174195
H         8.23254304207970    3.24088155703698    3.98640377645643
C         3.43593011612752    6.39398642573588   -0.93858795285108
C         4.26833580261206    7.56809663332428   -1.46702344301306
H         4.78727963425533    8.05957993940448   -0.64481277100025
H         3.62872371032790    8.29602052631873   -1.96311057958418
H         5.01135533399029    7.21208637504364   -2.17855792171492
C         2.69453700396824    5.73946150503489   -2.10281232794702
H         2.11414471579603    4.88720576834451   -1.75335843686086
H         3.40069723003963    5.38599852883706   -2.85253987469636
H         2.01967866287313    6.45446254142296   -2.57015750537991
C         2.41391485666146    6.91656796275645    0.07571842529432
H         1.81722143940551    6.09407808257580    0.46392368026672
H         1.74878104116328    7.63928686108652   -0.39394265026655
H         2.92194205989796    7.39928748148393    0.90955047340575
C         1.95576324392986    1.44042303532518    2.74047082782735
C         1.87615418437932   -1.20904311458960    3.04526219135364
C         1.48914463218037    2.85388149208746    2.44455721961673
C         0.19140912006745    3.13571388410982    3.21062367295093
H         0.35531462114238    3.02323877255107    4.28070592793180
H        -0.58734560060609    2.43766141104073    2.90620843822671
H        -0.15257254551398    4.14971219676432    3.01418781172281
C         2.53313279649812    3.89243415825062    2.84500851113094
H         2.78691680156630    3.78982659004943    3.89936105753855
H         2.15386258174866    4.89882349055363    2.67826319059588
H         3.44377911786465    3.77601625958354    2.25401499715282
C         1.21775056452767    2.95760311100294    0.93883494366804
H         0.51107808671697    2.18838290556823    0.62766366282119
H         2.14431851010587    2.82707842269176    0.37492154785904
H         0.80125845634528    3.93309550739998    0.69482335456531
C         1.26085482607086   -2.59619581771422    3.04071155281466
C         0.08111800240202   -2.61546399499168    4.01833929193422
H        -0.66822760549271   -1.88343628034766    3.71933634665659
H         0.42136697810401   -2.36779280460218    5.02203376420413
H        -0.38114414009090   -3.60085191628482    4.03888701602616
C         2.27224545868149   -3.66264737054436    3.45625341616060
H         3.11941431756914   -3.67349688929767    2.77216383746480
H         1.80642266413106   -4.64646125778147    3.44996227280091
H         2.64650244645529   -3.46060147513394    4.45825548167515
C         0.75225924416788   -2.91176170055092    1.62860962751309
H         0.04410006466135   -2.14884876430813    1.30632570728459
H         0.25273669823331   -3.87877250952272    1.61356852761392
H         1.58271030605318   -2.93922019211120    0.92414704808083
C         2.99383931504510   -0.28397543623039   -0.32792505520063
H         2.66005032015302   -0.56689666232845    0.66206325042055
C         2.21499254166631   -0.54467836479734   -1.44199854966387
H         1.25666013283832   -1.02560705358600   -1.32704723172082
C         2.68949716915441   -0.16765247064000   -2.68797461919422
H         2.10591961692752   -0.34644945003074   -3.57874482431789
C         3.93044025410129    0.44550927535206   -2.76566182608237
H         4.34336402312079    0.75464942062341   -3.71245302118544
C         4.63401824901908    0.67072715840135   -1.59609414507289
H         5.59911373233176    1.15983724982354   -1.61364718033276
C         6.99688054032979   -0.44660971331217    2.96857497280583
H         6.17158445422896   -0.37328101640925    3.66513348623229
C         8.20243492128954   -1.01254887154778    3.34697630962906
H         8.33441731327958   -1.38224205314336    4.35115219786014
C         9.22401093792818   -1.08694515170679    2.41414580982684
H        10.17957962481411   -1.51774374378398    2.67336667120622
C         8.99252668478817   -0.59346994630676    1.13927241863071
H         9.75730616400186   -0.62933478261690    0.37963439017614
C         7.75492630462848   -0.04377736282517    0.85544987308497
H         7.53666671628571    0.36378352491442   -0.12198898925047

