29
CSD_code = YIQRUM | q = 0 | S = 0 | Stoichiometry = C12H8N2NiO6 | MND = 4
Ni        1.25146796712231    6.29499818780588    6.06881270679598
O         2.08953145301432    4.68408416393390    6.44602075440547
O         1.12953909325577    5.87276765031655    4.29148486676716
O         1.31547831111008    4.73334612297542    2.40720469134964
N         2.41445741626797    3.70528796050431    5.65641199348885
C         2.56359986511561    2.59691304696643    3.57169284517754
H         2.34557176614805    2.64591577647752    2.51525183611052
C         3.19123474668382    1.51426841890740    4.15412816045788
H         3.49195162612080    0.66300780903129    3.56583009245164
C         3.42346995971515    1.55512539410325    5.52460909733141
H         3.90921453199305    0.73899635425784    6.03462788480136
C         3.02712891898046    2.65488492052780    6.24312175786706
H         3.17327645974676    2.75847572529992    7.30775443431731
C         2.17664733234458    3.69237157837909    4.33040153173348
C         1.47924011771186    4.86630375973202    3.60360557574881
O         0.41344394435144    7.90592737518413    5.69158942272657
O         1.37338043563660    6.71722387201194    7.84614524227047
O         1.18724028843548    7.85654759611827    9.73043796484732
N         0.08849477557550    8.88471377506399    6.48119621491064
C        -0.06065313673716    9.99308058510953    8.56591868598173
H         0.15738018973338    9.94407441070543    9.62235570486950
C        -0.68824858242064   11.07573924649522    7.98347412685124
H        -0.98897053869310   11.92699405444359    8.57177509121909
C        -0.92047749035110   11.03489179296866    6.61299259170304
H        -1.40623399325692   11.85101541361454    6.10297889734697
C        -0.52414163062207    9.93513283688013    5.89447761302241
H        -0.67028287323940    9.83154602547538    4.82984432320277
C         0.32627894770344    8.89761392357844    7.80721623107439
C         1.02378009855399    7.72375222313198    8.53403966117002

