56
CSD_code = YIQRIZ | q = 0 | S = 0 | Stoichiometry = C21H28ClN2O3Rh | MND = 4
Rh        8.13275182267191    9.22912626495953    8.62201147215742
Cl       10.06455909947599   10.24048348202525    8.19834178059907
N         8.73416291165877    7.70228386423597    7.40779856030654
O         5.49783318180698    7.96326828108727    9.25181487732439
C         6.51552089658278    8.41906575965502    8.99138139679897
N         9.91834760613392    7.74298761445001    6.78943939480014
H        10.50190306296694    8.56523788161240    6.97896846604632
C         7.72328136544402   10.67442729244081    9.68786175132075
O         7.53334518739667   11.59681186893146   10.33115863246395
O        14.73979713712128    5.73953977783276    2.97506939436224
C        10.13562299212689    6.65610056979501    6.03102967214276
C         9.00016280839485    5.85933356251767    6.17635809188545
H         8.80026166106729    4.91590378563287    5.71365221151225
C         8.16306681948098    6.55464343407231    7.03782197344562
H         7.19077154245568    6.26821078866563    7.39174022711639
C        11.33908262289062    6.45315756669476    5.24933177091351
C        12.23987073633924    7.49271498298718    5.02159164337043
H        12.04852986719827    8.47681907963339    5.42189349208882
C        13.38252725116913    7.29719945873919    4.27016469333332
H        14.05216557678686    8.12785082967928    4.11399089599044
C        13.65734363267069    6.04505152480266    3.72450858089155
C        12.75754264324859    4.99823750791176    3.95192358780489
H        12.98164111441187    4.03288206144481    3.52685833858650
C        11.62127369990207    5.19949232354705    4.69776873561342
H        10.94522028087465    4.37653325338086    4.86724174327404
C        15.69603961017171    6.74407107777855    2.69307422947184
H        16.12653441814185    7.13052337202460    3.62705449235062
H        15.22264901650941    7.57614677644361    2.15381204972238
C        16.78593073784181    6.11472573750313    1.83263721141678
H        16.32429456113780    5.70635548477219    0.93209955231808
H        17.22929194763453    5.28412329113218    2.38418310142507
C        17.86475450792376    7.12467994667583    1.45296504143144
H        18.31716057064022    7.53218203549629    2.36004423726871
H        17.40892091072376    7.95551351590954    0.90927259466820
C        18.95026029890726    6.48978996450419    0.58713764645316
H        19.41131386620568    5.66477635199599    1.13457081626880
H        18.49396523702594    6.07332483153112   -0.31362840142444
C        20.02824892288434    7.49398952755572    0.18647601689093
H        19.56734968392668    8.31995320401018   -0.36032223152202
H        20.48794810383805    7.91021658066184    1.08588672755114
C        21.10780934146580    6.85397279485056   -0.68291761434860
H        20.64518724766333    6.43086194841242   -1.57775956504598
H        21.57300497658119    6.03226693193014   -0.13330106603405
C        22.18321711471769    7.85485116092961   -1.09826138577278
H        21.71828816449864    8.67738151484357   -1.64711015278681
H        22.64862024425132    8.27728619144875   -0.20449317504310
C        23.25763583730609    7.21013018282996   -1.97040865325757
H        23.72432684576524    6.38960785186533   -1.42004328825926
H        22.79065522510206    6.78481170595289   -2.86207000141806
C        24.33339344581843    8.20721279971671   -2.39397248842609
H        24.80111606722562    8.63299194228674   -1.50321689950974
H        23.86775059415757    9.02693554232895   -2.94601732685240
C        25.40080188638639    7.55366910005657   -3.26306280840800
H        26.15684059413590    8.27940900459771   -3.55361032870879
H        24.95669350783892    7.14038685670079   -4.16616125634532
H        25.89001099328352    6.74578995652418   -2.72307845820499

