38
CSD_code = YIQSIB | q = 0 | S = 0 | Stoichiometry = C14H15Cl2MnN4O2 | MND = 6
Mn        1.67851656558292    2.93482904954806    2.61236517441085
Cl        1.16173270483736    1.47144243810009    4.16199536582081
Cl       -0.16035700381455    2.34317195954606    1.37922926576420
N         3.33685158800842    3.22303756560348    3.51041914691447
N         2.62138982436313    1.43080309900428    1.92718535610226
N         2.32929211590526    3.83493280763511    0.71985357890049
N         1.14962540615406    4.58470575389230    2.60888795817888
O         2.11735115407157    0.58609871929014    0.98644831113286
H         1.16071106817094    0.87798369191483    0.88276534567584
O         0.68780243995782    4.38324763626460    3.74425137326240
C         4.57224183404678   -0.05367954748950    2.13347720922493
H         4.01572111222031   -0.67192051058704    1.43398717258601
H         4.75606010818763   -0.62338982678733    3.04250619819669
H         5.53067909319322    0.21723857323522    1.69310517745729
C         3.77583692415463    1.16661556824062    2.45453657382625
C         4.21145043004628    2.18595138941882    3.37854643293318
C         5.42612966775104    2.15329528213874    4.06620240123161
H         6.08530029286466    1.31005294005071    3.93892376419337
C         5.75678295008764    3.19160794298934    4.90966421813080
H         6.68291587507918    3.18314602378923    5.46219418289442
C         4.85905279841944    4.24982086468591    5.03999879362540
H         5.06920706223368    5.07757127407470    5.69769357545868
C         3.67906058321202    4.22171768375932    4.32847455222988
H         2.96035775101387    5.02374285651205    4.44082323622430
C         0.50034558661078    6.88577470025808    1.96769004354813
H         0.03820424203597    6.89819433014192    2.95265766844102
H        -0.27139256841232    7.05397848543586    1.21771002023266
H         1.22961575458446    7.69299006365924    1.90451173431402
C         1.15543413580028    5.55714266187790    1.75504568947213
C         1.86127180009586    5.10904631375332    0.59127015451153
C         2.05872360634563    5.86066726742256   -0.57274483058675
H         1.66445456304712    6.86256050058779   -0.62279114861922
C         2.73783248859718    5.29945034566431   -1.62806124538512
H         2.89719180262395    5.85275579285828   -2.54075507585924
C         3.21187950308190    3.99635336843136   -1.49537870790704
H         3.74482200332817    3.51414625005942   -2.29810721317417
C         2.98509804041303    3.31429437973796   -0.31698617686407
H         3.34900669611908    2.30182230528690   -0.21649527649930

