74
CSD_code = YIQSUO | q = 0 | S = 0 | Stoichiometry = C26H39Br2N3O3Pd | MND = 4
Pd        7.48671889279897    1.52484711072002   15.70595947053677
Br        6.43260589989705   -0.41071595105952   16.81785379950403
Br        8.54601147214200    3.48686209716103   14.71792836426332
O         8.04388430451912    1.49940289067937   19.34198331571145
H         7.52803930801700    0.87702112084202   18.80433827339056
O         9.37595325550016   -1.50156664134273   15.15051031013550
H         8.51935740293320   -1.36695409216972   15.58873931819616
N         9.35824996302787    1.00797417893932   16.70978736340795
N         4.95630219826008    2.94402603740376   15.13429604142667
N         5.20645270218907    1.18201449680288   13.87212822231688
O         3.46451823207771    3.05592180888009   17.59719351898596
C         9.78895442145157    2.01177886257516   17.68721542982230
H        10.20852298904100    2.86867292688057   17.15170586120905
H        10.55588877380369    1.60074333813778   18.35736699700190
C         8.59228490998085    2.49683883557892   18.52104294950655
H         8.93039069370551    3.29113272599792   19.19131047671398
H         7.82414527620319    2.92252409970604   17.83728224449956
C        10.42216526380206    0.63375246202705   15.77337893288939
H        11.23741611151900    0.11640996263545   16.29691002558183
H        10.81915750328622    1.54087478404097   15.30789504201245
C         9.86761833008125   -0.27919019052439   14.66785186008997
H         9.08840019141746    0.27505224466156   14.09792360087789
H        10.67721409279831   -0.52710642178646   13.97702359921592
C         5.77949436499111    1.92541934868776   14.83161411942670
C         3.81399817886727    2.85037815811151   14.36920444343296
C         2.66596305225045    3.62428274183935   14.31295288111638
H         2.52700211499748    4.47514962317029   14.95928080146251
C         1.69669978973507    3.24538333517791   13.40541541644057
H         0.78690012211941    3.82119834415344   13.33331925750491
C         1.86459653784270    2.13489820304292   12.57962436345733
H         1.08313292829219    1.87691159038589   11.88153047863248
C         3.00168114390452    1.35286753319796   12.63411273560596
H         3.12548941184963    0.50068742821092   11.98774015375559
C         3.97935458832539    1.72168092425682   13.54657366251897
C         5.75780487606282   -0.05673570860412   13.34968074654856
H         5.24617647368347   -0.88755921324119   13.83971620377348
H         6.81705236241321   -0.10777999325425   13.65677911770749
C         5.64982858976511   -0.16190546720657   11.84834602433938
C         6.25977931567128    0.80918915444542   11.04928688076985
C         7.09912426686626    1.89340150720762   11.66396377904088
H         7.42577122528490    1.64247528815152   12.67045854546904
H         6.55056954835852    2.83442387654289   11.71808820194622
H         7.99986418305641    2.06050048607345   11.07804208291574
C         6.07702540148513    0.76884324565631    9.66444322218519
C         6.59717473363165    1.86747208862839    8.77888735640538
H         7.27353580624391    1.46473893262747    8.02625452831150
H         7.12340341320697    2.63132934506346    9.33746566421999
H         5.76882183218934    2.35497211083877    8.26467280036874
C         5.40642161293832   -0.30946553611065    9.08428334685376
C         4.92234559693171   -1.34950979442461    9.88092258673571
C         4.36307410774369   -2.58858009126456    9.23493843394917
H         4.56931146346775   -3.46511549868202    9.84290450262792
H         4.82099251328918   -2.75326499055678    8.26452809342378
H         3.28386113747163   -2.51101458551652    9.09426285200789
C         4.96434853471109   -1.23606348699754   11.27164669450122
C         4.26980726856082   -2.26071261700298   12.13075426203715
H         3.54373168384278   -2.82391546451731   11.55459094765546
H         3.72536622400942   -1.78955399205822   12.94721469385264
H         4.98661147220539   -2.96274934093817   12.55754045393461
C         5.21310913466282   -0.36711835138810    7.59409623286164
H         5.20943402066550    0.62565574198972    7.15707041644821
H         4.26835667532843   -0.84246846249597    7.34421713337409
H         6.01852307152873   -0.93517555944576    7.12661327449277
C         5.19175932900908    3.89725803427142   16.19087963159138
H         4.55936643769443    4.76869506263448   16.01997478119271
H         6.24501624105763    4.20372180379852   16.17419608026948
C         4.85316682832861    3.27714794151698   17.54849506465222
H         5.39323613913571    2.31851054913561   17.66450962720356
H         5.16944738605419    3.95121615592328   18.35957233295846
C         3.06669997328872    2.30992464971288   18.72019296976667
H         3.54058236075603    1.32110694735533   18.72538808395248
H         1.98758697661410    2.19531058598642   18.64907494534550
H         3.32172596100296    2.82879344770730   19.65181657822695
H         9.12122140016788    0.16042728140420   17.24093749543763

