65
CSD_code = YIQVAX | q = 0 | S = 0 | Stoichiometry = C31H27ClNNiO3P | MND = 5
Ni        9.15286518140324    7.75796249088258    8.22180932820902
Cl       10.13781332778246    5.95100856609004    8.81873535974510
P        10.71712137525597    9.13664746003517    8.81637180088386
O         7.39329386873654   11.67237135164572    7.29239810778192
O         6.78331792725726   11.60245252447175    9.49215925388387
O         6.84806816352190    5.59817253497454    8.31145833766550
N         7.27682828881571    9.70445608148976    8.41360795269674
C         7.88358204197647    8.98991544799453    7.34637304440216
H         8.09419731009302    9.63353914870252    6.49887595511582
C         7.16753456671001   11.07560747055992    8.31566784867511
C         6.64268462038413   12.96464952172522    9.71521036095272
C         6.48128916131971   13.92376301975740    8.72783647095025
H         6.48349474608313   13.64503993578944    7.68798506289107
C         6.33423580862208   15.25095905800301    9.09707941968590
H         6.21351291613239   15.99894564075549    8.32791036652610
C         6.33739366268678   15.62224651597221   10.42929627404620
H         6.22270898748429   16.65986427541362   10.70410271883873
C         6.48490749772027   14.65515348221312   11.41064886689051
H         6.48372680995738   14.93425387930727   12.45361712756801
C         6.63657162442968   13.32910422647395   11.05819803781056
H         6.75535416815174   12.56144382253249   11.80678323314708
C         6.91737754698348    8.97165357905319    9.52653237517285
H         6.61237883393298    9.53502080625529   10.39316232603836
C         6.91276989351479    7.62318791840716    9.49706088181213
H         6.62957752798265    7.04450116764125   10.36120828157099
C         7.20461857458255    6.88869604331459    8.27673547123781
C         7.26934536562116    4.76205417565542    7.25029372361169
H         6.74493589967374    4.99965026212341    6.31922601159923
H         7.02506361850357    3.74814690554834    7.55873342946103
H         8.35224552655140    4.85242194391861    7.11258582988806
C         7.53499745011328    7.63452360190423    7.13475752099829
H         7.61710459828989    7.18962242899619    6.15112954665761
C        12.01445166379227    9.18945867486501    7.54512078914027
C        13.02061329755881   10.14931060069154    7.49571764696956
H        13.04894697438399   10.94281498023464    8.23009983293087
C        13.97012689294100   10.09467195870205    6.49130102132731
H        14.75336219744606   10.83804101013916    6.45277559055940
C        13.91952007535748    9.09300336616023    5.53434361185702
H        14.66597816633989    9.05716817984466    4.75446482245105
C        12.90994487907047    8.14473504300999    5.57101037670026
H        12.86624753515798    7.37012359110411    4.81991078884844
C        11.95817760506342    8.19641824529832    6.57206392115144
H        11.15193154200317    7.46231017802919    6.62363833701026
C        11.56877198036732    8.61362910051668   10.34103603339478
C        12.93297928516007    8.74803052414733   10.55652743675731
H        13.56757906069576    9.16047883438766    9.78627950484943
C        13.48249946667662    8.32885441462217   11.75604101831412
H        14.54584557692059    8.42708549051249   11.92003542006923
C        12.67905522490924    7.77750401468153   12.73970587895571
H        13.11580187989756    7.44769620210055   13.67092146473442
C        11.31781223525525    7.63289555347427   12.52387995937434
H        10.69246326016289    7.18711514537045   13.28329773134740
C        10.76612693055164    8.04585362426310   11.32695681098668
H         9.70788910812865    7.90820678741113   11.12607728189631
C        10.41868664237870   10.90492964695918    9.15330378788949
C        10.19491200476268   11.36920536021770   10.44517794359214
H        10.25798211525168   10.68326963672107   11.27891025624698
C         9.90101939957068   12.70335400561699   10.66227042812673
H         9.73308509266833   13.06057299876975   11.66795163927260
C         9.81498519675499   13.58116432655234    9.59434358777038
H         9.57525035207060   14.61990981194494    9.76774724702230
C        10.02031658376990   13.12065223950014    8.30392189464477
H         9.93822045949405   13.79784463068333    7.46736502952162
C        10.31350992231835   11.78858057235423    8.08299587200747
H        10.45799050286003   11.42397596350273    7.07525670783203

