47
CSD_code = YIQWEA | q = 0 | S = 0 | Stoichiometry = C18H24O2P2Zr | MND = 12
Zr        1.29414913508445    3.95565404854152    8.07616711903658
P         0.11754356811267    3.95582928451470    5.62775646990800
P         3.61561179602752    3.95551988082875    9.34935878023462
O        -1.60692417149247    5.40834335336854    8.44016142438846
C         1.35688109057669    2.70200902421055    5.92966751391475
C         2.63802374326113    3.23937572751427    6.14353786838366
C         1.06148813142625    1.22769156684012    5.81954678618962
H         1.55821855815090    0.79541300191387    4.94787209342633
H        -0.01186882742596    1.07274092798562    5.70565806429493
H         1.39650392682650    0.68016095851008    6.70735019209712
C         3.89148810319809    2.40646330067150    6.19219578482599
H         3.66656352641109    1.37693866539714    6.46887217459035
H         4.61861095724989    2.80768370344559    6.90096353823348
H         4.36340907104080    2.39317513290280    5.20679444257524
C         2.46012474397508    2.70459033856594    9.87832073963247
C         1.35436350194667    3.24557707450083   10.55961637669951
C         2.72167821311421    1.22699253146112    9.72884382495054
H         2.83275538360442    0.74861688631510   10.70443855818470
H         3.64351332642645    1.05995669409622    9.16968180500190
H         1.89428033096333    0.73149755610600    9.20489419910128
C         0.33527226439273    2.41068070564226   11.28608221021687
H         0.28592373747530    1.40311234841466   10.87536221751639
H        -0.65827141942418    2.85477987709461   11.22713996159630
H         0.60242507408323    2.33255874131642   12.34252514315071
C        -0.46046210442232    5.17291453633006    8.35154398660462
C         1.35680056466514    5.20970949338654    5.92973476571567
C         2.63796959342357    4.67241370799372    6.14359998157907
C         3.89137199307529    5.50541739633595    6.19235368611299
H         3.66632382475233    6.53495896156549    6.46885483607842
H         4.61841870766734    5.10435338836746    6.90129792932927
H         4.36344054435635    5.51860723252504    5.20701179879122
C         2.46039785990150    5.20660859180375    9.87842631654562
C         1.35454423644164    4.66580971722895   10.55969774740336
C         0.33574047261764    5.50099846492004   11.28620473003782
H         0.28539109257286    6.50805272599993   10.87431005384615
H        -0.65759354115088    5.05626244173678   11.22884472847797
H         0.60399037507173    5.58058059978415   12.34226084413367
C        -0.46044766542630    2.73797879581934    8.35106073923860
O        -1.60664836774166    2.50192449696104    8.43968519035030
C         2.72219079683561    6.68417800765681    9.72920389045170
H         2.83298609707131    7.16240325904496   10.70490370205765
H         3.64421509931451    6.85119580016268    9.17035878705413
H         1.89501646447938    7.17982796361953    9.20506256156154
C         1.06140903157209    6.68402140619147    5.81955999824833
H         1.55815999938880    7.11619682927083    4.94784378367470
H        -0.01193658831749    6.83900987771506    5.70567350780777
H         1.39645774884840    7.23161497542154    6.70729914675096

