63
CSD_code = YIQWOK | q = 0 | S = 0 | Stoichiometry = C24H36P2Zr | MND = 12
Zr       -0.01257935663678    3.06469190811658    3.59365944053839
P        -1.52898338135577    4.59580588222084    1.96487160383391
C         0.20732895071462    5.00577634255959    1.90481921246837
C         0.99054932265762    3.97516499804269    1.36388518589999
C         0.21636439362990    2.84582369368891    0.97303989730959
C        -1.14799231456051    3.01416101464700    1.24186150717579
C         0.76632157013476    6.38115926515190    2.15162418720919
H         1.49010335888237    6.39324267648381    2.97373256714251
H        -0.03092885356131    7.08815564709186    2.37219626202654
H         1.28335668108610    6.73405314920148    1.25636935689061
C         2.45902477218199    4.17676008631332    1.09860959972581
H         2.59634819968261    4.89374867147925    0.28508578988367
H         2.94845488455746    3.24996193478834    0.81155773868047
H         2.96220416683371    4.57850657725496    1.98166552145844
C         0.71949814552379    1.64239465492899    0.22414023074236
H         0.48565027528006    0.72459294945862    0.76697651877894
H         1.79359900657615    1.68742177281640    0.06534516284558
H         0.23764234579977    1.58722071457303   -0.75382220604174
C        -2.19392909666092    2.03879616637332    0.77950941494073
H        -2.21437642761836    2.00528018282196   -0.31247762324735
H        -3.18153544410679    2.34283247820693    1.12272293188136
H        -1.98336074411696    1.03120896905420    1.14135418765833
C         1.36390389033792    1.38215125464999    3.39071975781587
C         0.72122086898770    0.19664573058916    3.47506089925872
C         2.86720208533162    1.45720072491293    3.19578851993987
H         3.39848179507817    0.78520055311092    3.87619102744091
H         3.23386765096572    2.47369593732459    3.38025669723559
H         3.14706111972785    1.17299844211118    2.17597811338374
C         1.41032241607663   -1.14735704082004    3.34053065201653
H         2.39993320791745   -1.03432466981280    2.90610587943432
H         0.83761895872658   -1.81585046074395    2.70044033055910
H         1.52130450117416   -1.62737674326848    4.31468220817214
P         1.50378868692557    4.59614022884956    5.22196530409907
C        -0.23262575500773    5.00564540967662    5.28249713289819
C        -1.01540679889451    3.97485913317746    5.82372951454226
C        -0.79210755540152    6.38082208752649    5.03563366854753
H        -1.51603079964414    6.39254862035400    4.21363924945219
H         0.00486561790877    7.08806271983018    4.81483242999281
H        -1.30911650579683    6.73365203317468    5.93093051565556
C        -0.24079996631109    2.84574698165439    6.21440014854177
C         1.12343719195659    3.01446977647102    5.94525770522366
C        -0.74345294862378    1.64209059603204    6.96325298906798
H        -0.50932438466262    0.72441599541589    6.42032141423079
H        -1.81756247159908    1.68671436504629    7.12208769718296
H        -0.26151751304955    1.58701819175249    7.94118083657244
C         2.16979890261122    2.03947067008086    6.40742880455767
H         2.19067679945695    2.00620199342054    7.49941485529490
H         3.15720569654049    2.34367013467805    6.06377320025749
H         1.95934926454774    1.03174622387582    6.04590377392246
C        -0.74705790392909    0.19687383901215    3.71265922733563
C        -1.38942260006374    1.38256997926201    3.79676740106015
C        -2.89273559527935    1.45802319711688    3.99138777484111
H        -3.42403971114034    0.78618918084419    3.31083735455660
H        -3.25908603356619    2.47462333466221    3.80686951289262
H        -3.17291139071554    1.17385515721479    5.01111871336855
C        -1.43656527576338   -1.14691052462248    3.84733001487265
H        -2.42612353247397   -1.03350944980203    4.28177570860340
H        -0.86406610570410   -1.81553140875037    4.48747072450717
H        -1.54775074965250   -1.62700366127966    2.87323571373039
C        -2.48381274761484    4.17612807457347    6.08959622683443
H        -2.62090644375406    4.89300491341333    6.90325357204586
H        -2.97293384508317    3.24920930418246    6.37676514271009
H        -2.98744247546793    4.57785943982448    5.20680309954658

