75
CSD_code = YIQXAX | q = 0 | S = 0 | Stoichiometry = C32H36Cl2N2O2Ru | MND = 5
Ru        7.18161609957845   -6.41731086119874    8.58257878243298
Cl        5.86630083207398   -7.22846182288867    6.85297136738736
C         6.27355940102091   -7.54911773509097    9.97047552654377
Cl        8.78784888691815   -5.77059179168168   10.12863251320877
N         6.54195552964721   -8.87114478155571   10.01404344898033
C         5.97478867828704   -9.43855703981332   11.12350019670687
H         6.07283857801553  -10.48158558697311   11.34658501325203
C         5.34258952510689   -8.44268661051659   11.78637697078549
H         4.77280080926147   -8.45512695520996   12.69289487745372
N         5.53432059578033   -7.29336078893131   11.06243234008264
O         8.32830605579401   -5.70480938684315    7.02827632454483
C         7.75445551239607   -5.12938062878819    6.10322027889056
C         6.61800827198386   -4.22014730154416    6.25770385781741
C         6.17021988066973   -3.50127349972194    5.14798644815531
H         6.62215742650764   -3.69951913214448    4.18902196446222
C         5.17168771735627   -2.55908188150686    5.26675904709064
H         4.82507649312934   -2.02498569773644    4.39516670724483
C         4.61891285923004   -2.28899541079945    6.51693436231105
H         3.84507593679553   -1.54141729578928    6.61226878647602
C         5.05451253418721   -2.97067396142207    7.62633974095854
H         4.62005637657848   -2.77213474321303    8.59559284061692
C         6.03813737669268   -3.98130848495505    7.53803913984938
C         6.34616515195967   -4.72135767032982    8.69965586644296
H         6.03084256756307   -4.27226763585641    9.64713253569969
O         8.22905181274938   -5.20457175198890    4.86187264164521
C         9.94880718137068   -5.67786418578488    3.30122569212436
H         9.21876704477289   -5.81654008703779    2.50788941887343
H        10.82326842362939   -6.28688359870871    3.09141919757017
H        10.24285622796323   -4.63165848238706    3.32550214436431
C         9.34441457354057   -6.08643084799515    4.63643125819348
H        10.07093633164285   -5.93129026472084    5.44557700833792
C         8.87705996401050   -7.53841220066132    4.63597977108575
H         8.43080783182702   -7.80310191030375    5.59346065038537
H         9.72315754351746   -8.19608845400983    4.45717269077339
H         8.13074851193973   -7.68857255153192    3.85894768397474
C         7.23325007798989   -9.53818264786074    8.95964337491754
C         6.48296473617428  -10.16197070390542    7.95611420351064
C         7.16136988901034  -10.72210766408480    6.88693954774356
H         6.59641175917468  -11.18556853282311    6.09153559657098
C         8.54805984143806  -10.68433910747012    6.80523874817292
C         9.26585610745918  -10.13428171769601    7.85534087558062
H        10.34645664487135  -10.14531876746068    7.82727476121572
C         8.63122313677239   -9.57200265719056    8.95765922777828
C         4.98849513180866  -10.21367075752771    8.03444412237483
H         4.65483058934272  -10.52724394459940    9.02283934544208
H         4.59619283951625  -10.90433216785754    7.29324081332819
H         4.57895604298141   -9.22447305399128    7.83047772111723
C         9.24437448697312  -11.27822703644223    5.61860089449786
H        10.30155476997482  -11.02524016625491    5.61811655987583
H         8.79388140387162  -10.91906788211100    4.69538400169040
H         9.15093790830103  -12.36405008713456    5.63466599814651
C         9.41914352908850   -9.09913952265540   10.13957494784340
H        10.46011374573755   -9.39642424425058   10.04295645135613
H         9.01549481532499   -9.52384658600237   11.05872895411013
H         9.38334438313907   -8.01174328821507   10.24062923770216
C         4.97699508524039   -6.02840901402685   11.38897439228977
C         3.85060801169765   -5.59386229939109   10.69021797584763
C         3.31399966295281   -4.35654311954805   11.01510123180979
H         2.44270222170176   -4.00617646739528   10.48045389986192
C         3.87637473920938   -3.56180404069196   12.00379208934221
C         5.00014962561743   -4.02219472881577   12.67718644908362
H         5.44897684946280   -3.40360601229372   13.44063208131224
C         5.56960537131824   -5.25269383586004   12.38550395461449
C         3.26155222408981   -6.43531422878605    9.60166372569364
H         3.97493120960177   -6.52445087357309    8.77855292422652
H         2.34832257976670   -5.98760829116609    9.22054392621579
H         3.03711164928743   -7.43858286171357    9.96220966417251
C         3.30261315066749   -2.21614704984463   12.32987467655690
H         3.22455708601758   -2.08314639287355   13.40692640614665
H         2.31715679962851   -2.09388578151901   11.88773523153084
H         3.95233763893384   -1.43006093937126   11.94497725015806
C         6.80994342346659   -5.72134786603455   13.07410773246587
H         6.67024333495548   -6.70529423377133   13.51846914720660
H         7.10446291353457   -5.02359820343817   13.85247732922003
H         7.61853604050883   -5.79433218472754   12.34362743447589

