103
CSD_code = YIQZED | q = 0 | S = 0 | Stoichiometry = C36H62NSi3Y | MND = 11
Y         4.87039871549323    0.55564418813263    1.27336749101050
Si        5.47451151506569    2.37521754540105   -1.54688398569038
Si        3.19665713228190   -1.23171046021754    3.52015026523658
Si        6.19030921269959   -0.89542514781485    4.02289611458533
N         4.76479215264784   -0.65981944266500    3.08044638486726
C         4.37229193256209    2.78252050088364   -0.06256228287471
C         2.97446653307093    2.64591860488155    0.08085028597985
C         2.62831894021481    2.75860909169095    1.44231734385510
C         3.80813205735505    2.92932157723096    2.19175043041131
C         4.91378592489120    2.92922384510828    1.28278240313510
C         1.94464001881851    2.47624739696227   -0.99704885499133
H         2.26208636992375    1.72763135021694   -1.72700704427856
H         1.82620921812357    3.42196924024214   -1.53683120685304
C         0.59838715936771    2.07412221334654   -0.39120246572407
H        -0.18028281177761    2.13435564430571   -1.15483476717561
H         0.64509542534255    1.03813826295266   -0.04342039995257
C         0.24979848860915    2.98247133616276    0.78542212746808
H        -0.77625074805337    2.80006017111702    1.11245273625156
H         0.32220559486498    4.02303329039348    0.46246343913726
C         1.21543218111018    2.74362266876415    1.94649364747164
H         1.08091921395828    3.51361834626544    2.71221089959602
H         0.98503170606464    1.77863449440164    2.41554120521887
C         3.94517742260727    3.29448095458212    3.64250684045896
H         3.40916748216021    2.59011175513665    4.28427477036298
H         3.50582466699543    4.28574612234465    3.80850219837467
C         5.42530851391055    3.32561951767151    4.01819394606013
H         5.54471954197469    3.71783700121004    5.03072545480644
H         5.82297328349879    2.30436387298768    3.99629123006792
C         6.19232765712213    4.19757935612072    3.02610958784730
H         7.20355678999925    4.39049880100766    3.39110920679591
H         5.67904257640189    5.15790566153164    2.93935366722644
C         6.26058768148180    3.53746998177926    1.64404004302821
H         6.51477195365702    4.29600067886819    0.89963364263042
H         7.07409452363821    2.79427948583255    1.63392529725246
C         4.57668092405732    2.40890554239706   -3.23319540484532
H         3.91107500657522    1.56262137723220   -3.35980685283936
H         5.30116266614854    2.37404231098164   -4.03982938363229
H         3.99239420763469    3.31439162070137   -3.35203746714142
C         7.01862013918828    3.48623040253726   -1.73023055176590
H         7.51138518144351    3.27503172585402   -2.67296791529784
H         7.74264287113288    3.32317545137309   -0.94036712803882
H         6.74998992820484    4.53699068354042   -1.73034149749209
C         5.97171315718432    0.61568486236419   -1.05161814636588
C         7.22512351888875    0.02219858184864   -0.85497290780883
H         8.17164281151163    0.53470142823498   -0.92602589081145
C         7.06051440485817   -1.34495945123079   -0.60167880558589
H         7.86407281412669   -2.04239994051245   -0.43632785644792
C         5.70124593606805   -1.65895847333115   -0.63308656465692
C         4.98103588119778   -0.44853208814623   -0.85865178526386
H         3.99317850350156   -0.42352427333392   -1.32436003330551
C         5.08570727367660   -3.02676543043700   -0.54798027650266
H         3.99331424660059   -2.92029748248714   -0.52793789273742
C         5.52134763549583   -3.73371278233083    0.74177979370464
H         6.60956509997192   -3.82689124981656    0.74178130612482
H         5.23548826003824   -3.11371133717545    1.59815380930414
C         4.90694243497431   -5.12681622390967    0.87292896217435
H         3.81616524814458   -5.02511191126116    0.92844853728996
C         5.25451347310511   -5.95739973761150   -0.36241485422529
H         4.78182583029243   -6.94022120918223   -0.29096710953097
H         6.33592392625937   -6.11087445421600   -0.39791493517077
C         4.79997001777364   -5.25735288839058   -1.63868461962106
H         3.71523750818538   -5.13842075111664   -1.60941565726559
H         5.04868451414968   -5.88005014865074   -2.49961265885374
C         5.46644963427878   -3.88778809966473   -1.77090667722688
H         6.55222861001954   -4.03207335450089   -1.73737307354360
C         5.39788366740005   -5.82232714460598    2.14012936024496
H         5.15829839223186   -5.23458781784001    3.02280989440947
H         6.47725719981038   -5.95596176664590    2.10442170141549
H         4.93607343676233   -6.80234623895817    2.24253528942065
C         5.15707895141012   -3.17595229917324   -3.10333005471763
H         5.54070604869074   -2.15447324256081   -3.00738279725752
C         3.66542846632120   -3.09258568334612   -3.42209275564028
H         3.51061531876556   -2.45917255566984   -4.29324034344482
H         3.10852956393856   -2.66528841597434   -2.59233390246984
H         3.25832024460549   -4.07589731982050   -3.64524392940535
C         6.05677439309295   -0.21188324456553    5.80498879991085
H         5.59062233125085    0.76692008972131    5.84089615499362
H         7.03136019400462   -0.13309297525717    6.27570962648026
H         5.45456376717453   -0.88140562634911    6.40978158200347
C         7.56832842080098    0.06309207250256    3.06845703299641
H         7.75992747238918    1.04409138546063    3.49555506748198
H         7.30860003248128    0.18597917198182    2.00184831718371
H         8.50484816213051   -0.48469134321040    3.09977690865070
C         6.81065483359745   -2.69541962089865    4.18831816011664
H         6.04597170019333   -3.33242201698422    4.61717190240751
H         7.67799099525106   -2.74348257704167    4.83972583883794
H         7.09369939650647   -3.11865285961323    3.23095579557863
C         2.29193304751220   -0.13800570737868    4.80701244576225
H         2.91543240131801    0.01791459201667    5.68063360499559
H         1.37228420352434   -0.60798913616267    5.14113152035715
H         2.03299887442884    0.83728406736238    4.40672893578467
C         3.10149135883567   -3.01899131667412    4.17571983668655
H         3.63416357054769   -3.10495551061354    5.11622350515014
H         3.53459851665205   -3.72879384021506    3.48084760385713
H         2.07322174695848   -3.31709706082216    4.35253994285977
C         2.19443859517788   -1.15225626201673    1.87393671086260
H         2.35194151760105   -0.19381111761612    1.35253569386900
H         1.12796351304873   -1.24558570836310    2.05728302791607
H         2.47921516690585   -1.96092101405307    1.20394895397647
C         5.89571479442913   -3.83578424887678   -4.26741965358229
H         5.74060446799945   -3.26519827452197   -5.18050785742283
H         5.53660572444958   -4.84812582713933   -4.43846527723788
H         6.96422982149165   -3.87683421274341   -4.06941275353592

