70
CSD_code = YIRCUX | q = 0 | S = 0 | Stoichiometry = C43H16BrO6P3Pd | MND = 4
Pd        2.84474687061370    1.68444494383303    2.93802697950246
Br        0.98624000499017    0.44226987333982    1.93419600152056
P         2.11423983627722    3.70874041420536    2.66723655115159
P         3.57100718950767   -0.75650188014893    5.10060271227501
P         6.95617483581144    2.74132220861420    2.17617457316088
O         4.44036002704373    0.10292565031556    2.75890252861844
O         6.66278408942472    0.06249206854525    2.78589203390008
O         6.79221813882494    2.49060540366168    3.75034456818319
O         5.82736893689768    2.25489401013046    1.38698906684378
O         8.35572179985690    2.09281679178452    1.79976398504215
O         7.22282625632808    4.31588923963579    2.07313279340681
C         2.45341362038181    3.64122941045188    0.93025243075702
C         3.20898992209240    2.38424496431865    0.87615540805911
C         3.63367250420017    1.97875639833952   -0.32901091035997
C         3.38223090087667    2.79448498678558   -1.32732735585204
C         2.72872699011367    3.91411873265644   -1.30941308809884
C         2.24909553157616    4.41647054068600   -0.17819311380438
C         0.48298014554179    4.06033164026942    3.26195609161204
C        -0.06721742619142    3.29856127034087    4.38028811448995
C        -1.33181183905264    3.68170202367474    4.73923177746150
C        -1.95788560433234    4.63130078098408    4.10350161476796
C        -1.39769764870726    5.26210406524685    3.12054798731751
C        -0.20544526943243    5.05779095557957    2.61357887507684
C         3.34544037678752    4.76834021955490    3.42399676679416
C         3.29310185994594    6.13383748480862    3.36004904203797
C         4.40577940281874    6.69640366145893    3.77733908935485
C         5.48364954645847    6.12515975240813    4.20611350914630
C         5.56614226389763    4.82087269378164    4.29623242511771
C         4.51675199131685    4.04149603259631    3.92066458778911
C         2.19894597609874    0.38041250036081    5.53646962253691
C         1.51038697730320   -0.11322181478433    6.70269863356913
C         0.46468308572611    0.71487783276927    6.96949064873379
C         0.10527319837330    1.70104306724846    6.25404991880694
C         0.61279506856615    2.22482371613314    5.09108127717289
C         1.77583999103681    1.45495141511146    4.76462056214174
C         4.99253733865236    0.07475056894008    5.95661824861478
C         5.24306044901283   -0.43568782438761    7.20563591658533
C         6.29024136071793    0.04348215602710    7.82489360414074
C         7.10003965053914    0.94531781360132    7.37064651299539
C         6.93436239203482    1.49947531362821    6.19327810344004
C         5.87929390206326    1.09120482988340    5.42705059221051
C         3.10892247364569   -1.83514269298654    6.50624038979512
C         2.01581533005442   -1.34823495869486    7.23721440446462
C         1.52619569357319   -2.06091725291270    8.32359102625488
C         2.12626447064861   -3.25963574013187    8.66500241884249
C         3.19538391819886   -3.75102938307715    7.92800334014834
C         3.68541756622406   -3.04739718661577    6.83892010111409
C         4.34876913097747    2.58967744537740    4.13799471010429
C         5.63708843780553    1.74212499174208    4.08128641513852
C         5.50890785896230    0.58873663617009    3.09215297366430
C         6.63052464853545   -0.98244246239679    1.79566113894798
C         8.05830120051541   -1.31582119556317    1.41638715393070
C         9.49867985692526    2.42994045464890    2.57826971007014
C         6.55003929904852    5.06876984536218    1.07280919928389
H         0.68409044099029   -1.67935165317339    8.88156530824433
H         1.75435286763390   -3.82426424075088    9.50703405613583
H         3.64378916902012   -4.69505585147155    8.20035698424944
H         4.51319422948758   -3.43350342535798    6.26125502781224
H         3.94405003432323    2.49396209040572    5.16205329696713
H         6.10437902921705   -1.84271800184765    2.22339555317672
H         6.06067092457468   -0.61122021273208    0.93808171106423
H         8.05767296353533   -2.08984222238165    0.65456717173709
H         8.60781078422779   -1.66991632878077    2.28466489482750
H         8.54686144710948   -0.42707684635700    1.02736503417794
H        10.35137566668321    1.96739563655838    2.08356671026005
H         9.39263894074298    2.04107408707606    3.59111555426618
H         9.62717596980529    3.51167557870188    2.61941381129562
H         7.27487984267017    5.38787922394674    0.32328791584649
H         6.10099067290747    5.93996375507131    1.54976616826127
H         5.77139248874373    4.47043599493494    0.59741913180030

