23
CSD_code = YIRKUF | q = 1 | S = 0 | Stoichiometry = C4H13N4OPt(1+) | MND = 4
Pt        0.44157351402843    2.85993541173903    1.81412636802806
N         0.81560131096438    1.64423641688467    3.50873761518511
N         1.69406292713972    4.18588251096234    2.60391446612011
N         0.10966601401807    4.06811258342467    0.20002329246499
N        -0.77894728540655    1.54099258664668    1.06943061834192
C         2.06179144072391    5.39917101133118    2.18648020848540
C         3.04074513044849    6.14359253075945    3.06459833728494
C        -1.51400394702599    0.82520003280894    0.54696984160943
C        -2.41802736678080   -0.06607730761642   -0.08763505758601
O         1.64649859498519    5.91363872789316    1.14145690438198
H         0.55071620273653    2.14747040952978    4.35758482398630
H         1.81129972405188    1.42289836485758    3.56638889903624
H         0.29950775672172    0.76428898607711    3.49206086169072
H         2.14678979682630    3.93464397724612    3.47815330125843
H         3.98769679787345    5.60780295440917    3.10419729374374
H         2.64956923567448    6.24151554588680    4.07549130034410
H         3.21043793315126    7.13208112525643    2.64793996745785
H         0.44141666616914    3.68320931402978   -0.68425046464796
H         0.70801005144642    4.94380853085940    0.43792108444757
H        -0.86048019320917    4.36298766527947    0.09045651389554
H        -2.85860010090822    0.41766271870617   -0.96012761870741
H        -3.21472514658006   -0.34429215470384    0.60320945850048
H        -1.89059905705218   -0.96516194226536   -0.40852801532274

