16
CSD_code = YIRKOZ | q = 1 | S = 0 | Stoichiometry = C2H9ClN3Pt(1+) | MND = 4
Pt        0.88507277591448    0.83409958456238    1.44703070340649
Cl        0.04491504438221    2.81758878620221    0.83985743251935
C         4.41211871115893    2.60324797968826   -0.56394752422265
C         3.36787111378339    1.91787428728325    0.10465571499919
N        -0.96682098089652    0.48394035260770    2.24260675660803
N         1.67366421927447   -1.12409609083396    2.06710840729116
N         2.54053966769680    1.33373314463712    0.65310269744446
H        -0.98856650936467    0.34431305467802    3.25432693003548
H        -1.49116968474592   -0.27439238577065    1.80253020958087
H        -1.46767290154532    1.36039809323641    2.04051518303865
H         3.98717324033062    3.42693257321854   -1.13986003948091
H         4.93555569696978    1.92732181126508   -1.24083369745243
H         5.11842946029038    3.00540421216643    0.16332635111196
H         1.05899873706241   -1.88962846985139    1.79895754789488
H         1.80349374131259   -1.15593591173464    3.07661820905997
H         2.57999766837690   -1.29250102135313    1.63500511816509

