61
CSD_code = YIRPOH | q = 0 | S = 0 | Stoichiometry = C28H29Cl2PRu | MND = 9
Ru        1.39040456262852    8.74107397169203    6.42221381768434
Cl        1.14758336300502    8.75577167756291    8.76817825367004
Cl       -0.80983652535805    9.59132234100052    6.40539777767471
P         1.96497395554525   10.94994817863540    6.49752840443202
C         2.21622985845532    8.31978476992567    4.36038184775412
H         2.44921325507770    8.97778425229608    3.52928760985192
C         3.22747483124254    8.01272472615810    5.30953848351163
H         4.21628193157380    8.44520294926310    5.18838439736998
C         3.73216647154406   11.28006335976705    6.19029838403520
C         4.70800462400010   10.79717554599568    7.08336159717519
C         4.13806809598905   11.96393023073724    5.04830615615474
H         3.40458912498279   12.31461479019656    4.33969464498946
C         3.00266402476643    7.08650977324778    6.34281768253854
C         7.69056830199431    9.43939498074648    9.76831932813055
H         7.40497885935655    8.88029250016510   10.64756239272041
C         0.72326064761834    6.76808816714601    5.48520528393278
H        -0.23086557228909    6.25316695480926    5.52675609578751
C         6.07805962538714   11.06589656649562    6.83304549113542
C         7.84585056992317   12.05133866518353    5.45255781713383
H         8.11993782856870   12.60690291192352    4.56683950615592
C         6.46293160109835   11.78939253031568    5.67721045773514
C         0.95357477419123    7.71158855993070    4.44119115160313
C         5.47125132785487   12.21656412355344    4.79414517886676
H         5.75547348981426   12.75711780184900    3.90231084964646
C         1.54589968052010   11.94078515927353    7.97291703035619
H         0.46626561223645   11.84970808505396    8.10964634367900
H         1.82338274045398   12.98139974295990    7.80105304591240
H         2.04364419351984   11.55516711463352    8.85926468824164
C         4.36824416769690   10.03244875619191    8.23562879564279
H         3.32902888678749    9.77919887657443    8.40202371062604
C         6.69746356303875    9.87488422493039    8.88874608127483
C         5.31624522531486    9.59573927047304    9.09838980476924
H         5.03485880562264    9.01716356224102    9.96562307066635
C         7.06951670266699   10.60905890573466    7.73613800813197
C         8.43764367963101   10.88634867482803    7.49102287132200
C         1.72066133466897    6.46798966216079    6.41275887305087
H         1.53348634129813    5.71612487246297    7.17059254543664
C         8.79004506795364   11.62214301887368    6.32131950763072
H         9.83649576192453   11.82783230224945    6.14565800784194
C         1.09433443353153   11.92336501330272    5.21889517230364
H         1.25804960853916   11.49519358934608    4.23117513170668
H         1.41243569908339   12.96504721286105    5.24506170222729
H         0.03192416480816   11.85087053600828    5.45265026703448
C        -0.12861259537954    8.00593396104667    3.44976661831062
H        -0.91152633808073    8.59228873296444    3.93759031410673
H        -0.57763233283412    7.08282697783054    3.08640281831032
H         0.25445280005009    8.57504116715718    2.60551903700884
C         4.15165231209570    6.64802557398972    7.21953649962157
H         4.87393721555170    7.47200975579582    7.26140625481318
C         9.02209522326641    9.71920985577659    9.52336081486245
H         9.77798076504125    9.37724045336011   10.21536236718076
C         9.39573129450779   10.43302149716483    8.39891233988834
H        10.43877070796511   10.64687885063538    8.21424074962414
C         4.83126070347583    5.44351886801085    6.55463738694205
H         4.13511391702186    4.61061185753035    6.47191836265164
H         5.68204251964662    5.12348026862717    7.15106422872693
H         5.18429392071440    5.69825085357692    5.55679383586629
C         3.72844634289356    6.30904872866766    8.64782800825436
H         3.08293193285325    7.08848013059641    9.04825541813781
H         4.60962730565650    6.22480132587633    9.27896975546754
H         3.19766960930977    5.36021223264153    8.68663792264260

