33
CSD_code = YIRSIE | q = 0 | S = 0 | Stoichiometry = C14H12N2PdS4 | MND = 4
Pd        4.77339008032272    0.00007588522412   12.19641068747756
S         6.46857117818272    1.56286900697233   12.48290005527784
S         3.90715249656006    1.44644322173528   13.79284162551877
N         5.85753030517431    3.25412413695089   14.38299971326237
H         6.80767796666455    3.52984595129255   14.15115250460837
C         5.41586113395236    2.21193099991997   13.66301021086527
C         5.28850948214143    4.00560836824642   15.41312920814789
C         6.11272362255526    4.95234573611728   16.02454557722680
H         7.13454382934604    5.06454182457744   15.68950154337084
C         5.63223515502795    5.73968589406998   17.05114798795854
H         6.28194300042002    6.46577618993826   17.51598769190963
C         4.32286516864405    5.59798998205703   17.48232235542764
H         3.94666674161185    6.21258889540749   18.28554168426778
C         3.50205313050338    4.66464216518010   16.87380713002342
H         2.47962611832291    4.54994501312283   17.20001426823487
C         3.97247503185924    3.86923371475848   15.84409764175090
H         3.31754654260573    3.15193676130071   15.38095133398230
S         3.07811526366254   -1.56253179904817   11.90967011039995
S         5.63956926707054   -1.44610076150878   10.59980380548634
N         3.68940100221204   -3.25402551446764   10.00990528500632
H         2.73926220109601   -3.52978108171159   10.24172923232668
C         4.13096597520048   -2.21173428765586   10.72976080401414
C         4.25849968518138   -4.00558030350697    8.97986568020241
C         3.43431428083439   -4.95233304387237    8.36841714932910
H         2.41247015228625   -5.06452923650284    8.70338575819148
C         3.91485401233251   -5.73977544563989    7.34192410346486
H         3.26517024000611   -6.46590474405952    6.87708227456702
C         5.22427612906160   -5.59816238022184    6.91087991776506
H         5.60053532781133   -6.21280456007808    6.10771177453066
C         6.04507050192589   -4.66482183568215    7.51943387901609
H         7.06752864607471   -4.55015941169128    7.19332386257854
C         5.57459096555177   -3.86932458967583    8.54903773107178
H         6.22950536579723   -3.15201475154866    9.01220741273820

