45
CSD_code = YIRXEF | q = 0 | S = 0 | Stoichiometry = C18H20N2PtS4 | MND = 4
Pt        5.47624609976242    4.10999112689855   -0.00141935629971
S         4.96961553703138    4.78588911627470    2.19389385671798
S         6.99234736373421    2.93779828855154    1.36152894440932
N         6.71005497768203    3.54746821231543    3.89889472860547
H         7.49545560054379    2.90365154089873    3.92960119651995
C         6.24428157771702    3.76244433486015    2.66259110986023
C         6.34896590315533    4.05611405455151    5.14860042977446
C         5.27495289549106    4.91348320199721    5.36373794496239
H         4.65314978993682    5.22762544152775    4.54359748189606
C         5.00347653282561    5.36669983661151    6.64109900628530
H         4.16749126179777    6.03371907627163    6.79165447813724
C         5.78077539322939    4.98907255397947    7.72780145852564
C         6.84697334816182    4.12491100497066    7.50455271034300
H         7.46474662069549    3.81278776195499    8.33397230530182
C         7.13012732487027    3.66338717732844    6.23637530910238
H         7.96498622579291    2.99438653391963    6.07948402194576
C         5.45116081989267    5.45840212131125    9.11461947983177
H         4.96799522585671    6.43602859913746    9.06864287480898
H         6.36811582973796    5.55660557000331    9.69917309582683
C         4.51538076704682    4.46614294630834    9.80868731184171
H         3.58913739259569    4.36451199801255    9.24784817176722
H         4.27808069016353    4.80722908667012   10.81353488530935
H         4.98372548746280    3.48674543241449    9.87547358756914
S         5.98345468800593    3.43070123731820   -2.19437332286512
S         3.96044977881493    5.27972873191815   -1.36188118793572
N         4.24235164204571    4.66899398543849   -3.89867743759626
H         3.45713398125006    5.31303867588173   -3.92926317496477
C         4.70765417639211    4.45328154280753   -2.66233091767998
C         4.60351874303515    4.16069637761578   -5.14851390505578
C         5.67733475352480    3.30309355699572   -5.36370235645653
H         6.29916429929487    2.98889931075744   -4.54355569733693
C         5.94829370889990    2.84941414766087   -6.64104010989851
H         6.78423467446661    2.18236496636714   -6.79170251570446
C         5.17070226518432    3.22682405400509   -7.72763355115170
C         4.10471902447783    4.09120627079982   -7.50429359484713
H         3.48668273580908    4.40309864437892   -8.33357681312601
C         3.82209424017811    4.55323091931016   -6.23618656574333
H         2.98710348043285    5.22202631608030   -6.07917750103595
C         5.49991814130549    2.75720347874906   -9.11446126468297
H         5.98252705356401    1.77930663684961   -9.06843185616178
H         4.58286635306857    2.65945479942377   -9.69893382826410
C         6.43620153407012    3.74878761904948   -9.80880984419063
H         7.36257065519781    3.84994448362733   -9.24810173663021
H         6.67316461125426    3.40746983198672  -10.81365669604127
H         5.96841679454322    4.72843939621190   -9.87564115567113

