108
CSD_code = YIRZEH | q = 0 | S = 0 | Stoichiometry = C55H48ClN2NiP | MND = 4
Ni       20.79810144766245    2.90179012065232   16.27808752705194
Cl       18.24136840142510    3.31687968128854   16.54616081006134
P        20.37481215476650    0.85721115305354   15.65923675214760
N        21.70526100591805    4.62465264927396   16.28100792790536
N        21.66303507035469    2.61710148838094   18.06744862114000
C        22.57004847316369    4.65063636585337   17.35461156749670
C        23.34498497036316    5.81886927852641   17.31176166473543
H        24.09923032423465    6.10381452362180   18.02048924105687
C        22.93970782319506    6.50496318829661   16.18473298005302
H        23.29691809551542    7.45260192673007   15.82879296662689
C        21.91759299146143    5.74720915423604   15.58210802375113
C        22.47486685769877    3.61034453760163   18.28739235083908
H        23.04755410459299    3.66337489203196   19.21358378631293
C        21.13303215325405    6.18703178598455   14.42463853003519
C        21.75158442235078    6.33272752224474   13.17317101425979
C        23.10588888892398    5.97262224132393   12.95684282179519
H        23.67093829601951    5.57829683083964   13.78857745960899
C        23.68527064234330    6.11417404873885   11.73278200710421
H        24.71864566092150    5.83639249742965   11.58158355225467
C        22.94510479271073    6.62218507812755   10.64540237369701
H        23.42621497825867    6.73156925830876    9.68390207750993
C        21.63770088314789    6.96248505768216   10.80766801830533
H        21.05906404932172    7.34472007477874    9.97803811603134
C        20.99579095454539    6.82356474308202   12.06473819027642
C        19.65250223463611    7.13969439064789   12.23890655777961
H        19.07996946946470    7.50129466392044   11.39539330501610
C        19.02884391277398    6.99882159933711   13.47418965020529
C        17.65804945533383    7.31249606086124   13.65567946236531
H        17.09466153391427    7.65452560385495   12.79855247414398
C        17.06525870690876    7.19035562589135   14.87416404834962
H        16.01926819266243    7.42999169091619   15.00281958797308
C        17.81600157732576    6.76259352270241   15.98754389458027
H        17.33350215541521    6.68797641599930   16.95136708726855
C        19.13299055724369    6.44562211268021   15.85185439419006
H        19.70479524730764    6.12352090760673   16.70959557669253
C        19.78203256704614    6.53059522411768   14.59399603127101
C        21.53845154189344    1.67746551104567   19.11704898581758
C        20.58521685620721    1.91421414451496   20.11605168983984
C        20.50545404964916    1.03039989594330   21.18098929969224
H        19.78896944797998    1.20360182686135   21.96923412415886
C        21.34418727293147   -0.06484064968846   21.25389844261580
H        21.27786868905215   -0.74074096524463   22.09410257010571
C        22.27286503233276   -0.29580607248529   20.25680673873501
H        22.92258638545092   -1.15310934628402   20.33202630002234
C        22.38802722901572    0.56500045933062   19.17585364245022
C        19.68805188911237    3.12944590022760   20.03671798414711
H        19.68791092751264    3.48620392972578   18.99919422324797
C        23.40326508798428    0.33303332397589   18.07969812620250
H        22.94965935820015    0.68503323527122   17.14424929734735
C        18.24097344446698    2.82530663127846   20.42567473135466
H        18.15002226141415    2.63382187085583   21.49224853906258
H        17.86512730121147    1.96019403242023   19.88456449005498
H        17.61061171177279    3.67805886668884   20.18228733079465
C        20.24288844837224    4.24913651101485   20.92172797275485
H        20.32072084553844    3.91375635648282   21.95432254249014
H        19.58591393213151    5.11574147594386   20.88614534009425
H        21.23041276671517    4.55619254501407   20.58469955441377
C        23.77650871972350   -1.13792874887679   17.89998845337760
H        24.45379605397862   -1.46555782764090   18.68591486880035
H        24.28145559313630   -1.27075921051100   16.94453231159772
H        22.89226023948771   -1.76849013002221   17.91383602601193
C        24.68371700606137    1.13904762163215   18.32511612134191
H        24.50266542842990    2.20758682648761   18.24951025463804
H        25.43423505356120    0.87057821568247   17.58395209683326
H        25.08107229360182    0.92245063542629   19.31526520153770
C        20.02651267368100    3.31511345841333   14.63018257599004
C        20.45677077514198    3.45793230047527   13.31816577562586
H        21.49619475977364    3.30623390573276   13.05965990587941
C        19.55126190249676    3.80356281142869   12.32396335545407
H        19.90288303953670    3.91877414445404   11.30886694466872
C        18.21303820362395    3.99672249465755   12.61491915721176
H        17.51936651692698    4.25688698033697   11.83003754787483
C        17.75407152551297    3.86154403330161   13.91562474275628
H        16.71568234781558    4.01275509934557   14.16602839709926
C        18.67477964928266    3.52998469342362   14.88438068787536
C        18.94535690583314    0.50660259550790   14.57430967526859
C        19.07555726122564    0.60215597085794   13.19166138937945
H        20.03985303838910    0.81800980042262   12.75525121421799
C        17.97534790398486    0.43289051483948   12.37310263863639
H        18.09013836031502    0.51005176756081   11.30200167404587
C        16.73075880358140    0.17440395216666   12.92228781497590
H        15.87078272141894    0.04920354720895   12.28127800097668
C        16.59357450126731    0.07858553387364   14.29638404635157
H        15.62558328939112   -0.12262172052219   14.73142163489835
C        17.69262148637559    0.24446134809853   15.11917916392805
H        17.57393316078011    0.16951880984917   16.19034922778518
C        20.10847551215613   -0.44219740317895   16.91901667550374
C        19.30294499716180   -0.07790944118998   17.99474133380343
H        18.93136771490991    0.93643294144949   18.05206437825846
C        18.99297537084161   -0.99210267375809   18.98260811138589
H        18.36834185649220   -0.70047044653625   19.81375982183664
C        19.49375125131643   -2.28089386742739   18.90910355409914
H        19.25915515448050   -2.99824101041812   19.68135305450816
C        20.30165511411348   -2.64669903035133   17.84658793412650
H        20.69765206059980   -3.65087364577430   17.79045223755558
C        20.61186702103012   -1.73350057093252   16.85261425813742
H        21.25499985687402   -2.02853503623266   16.03740834817347
C        21.77465834035078    0.29083188862136   14.64465842023763
C        21.77653912979254   -0.89159450239714   13.91085922038053
H        20.89166249528874   -1.51270359890826   13.88151286705265
C        22.90251093587576   -1.25466838921115   13.19358561949717
H        22.90417870342802   -2.17548321546154   12.62831916755792
C        24.02440873473498   -0.44057865849395   13.19247919994307
H        24.90021903695727   -0.73273919837903   12.63194449411249
C        24.01582854606315    0.75434561041734   13.89352883187946
H        24.88099129400510    1.40065116137833   13.87497990842972
C        22.89319972667505    1.11836132167696   14.61340849432811
H        22.86216040095280    2.06485294154010   15.15468078881385

