100
CSD_code = YIRZAD | q = 0 | S = 0 | Stoichiometry = C48H46ClN2NiOP | MND = 4
Cl        3.10684407289654   23.56812236752215   22.30611976743100
Ni        3.31797283370481   22.80414557865644   24.76823697485814
P         1.22413318543486   23.22817777738302   25.20929714680453
O        -2.10065724559087   19.34392726887389   21.66517558891920
N         3.36537710606228   20.86282215933864   24.83257951445741
N         5.23845294496427   22.70956457622240   25.40915691711514
C         4.51313617337097   20.49279725197788   25.50190295677414
C         4.51203320664738   19.10474764068142   25.72235203072593
H         5.28337156718337   18.54425613032209   26.21605227447764
C         3.33926064810739   18.63272112232633   25.17698401355718
H         3.00981982399368   17.61227649383984   25.13254460113293
C         2.66086580427758   19.73932075279745   24.62186260804243
C         5.47859092980471   21.47594781536556   25.75021332562275
H         6.44184998285754   21.19510976414111   26.17445945201960
C         1.43068266394556   19.66386038724694   23.85258752503110
C         0.47445020651554   18.67959907572456   24.11549296906507
H         0.63365037539273   17.98329387827817   24.92465611427068
C        -0.68034922244482   18.60300667260350   23.37329985017263
H        -1.42903746163211   17.85494050640982   23.58247347217822
C        -0.91429912370440   19.49665687694788   22.32699551590693
C         0.04668218723903   20.45406994462061   22.03027028585716
H        -0.08046831774389   21.12851451097782   21.19638477991541
C         1.19785233093289   20.53450695514143   22.79364390063471
H         1.95340174744420   21.26349766293997   22.54387394388436
C        -2.39912491376305   20.23490641504905   20.62092644932140
H        -2.41630768271803   21.27338842813932   20.96993318973099
H        -3.39216458642003   19.95820463090250   20.26951330593445
H        -1.68660116838878   20.14242544618154   19.79415196208434
C         6.24033357828380   23.68894211172999   25.56445113531180
C         6.86442451067967   24.18671057719796   24.40954007081460
C         7.80727797618559   25.19303518850527   24.53239552828574
H         8.29301481490751   25.58321105202687   23.65204694587631
C         8.14839326416639   25.69347452396453   25.77463971002429
H         8.88441552479641   26.47960697975580   25.85927787155306
C         7.56771562376923   25.16508743349307   26.90944374793816
H         7.87205268896601   25.53628751472201   27.87622334279380
C         6.61243973927145   24.16050476602985   26.83074608939829
C         6.57426038762661   23.54984585777541   23.07239886303470
H         5.58243604027527   23.08729128707902   23.12475648657254
C         6.04642673385473   23.57262703715038   28.10411388707472
H         5.19566859615866   22.93168549797270   27.85134553430797
C         6.58483611421418   24.54480864497388   21.91372584079887
H         6.00838721519536   25.43176850131496   22.16678847837868
H         6.14480580214014   24.08607960185220   21.03075091481589
H         7.59934793985189   24.84653771985894   21.66330383247616
C         7.58842869040174   22.42846877618229   22.82327504530490
H         8.60127553100006   22.82730742871872   22.81389122042323
H         7.39252534401455   21.95119155586815   21.86546677373918
H         7.52334988966212   21.67226716392128   23.60303375099751
C         5.55791071463818   24.64954867973210   29.07411056971730
H         6.38114566822818   25.26505154211393   29.42688928976027
H         5.09896708140904   24.18081851245324   29.94250042880787
H         4.82571653065794   25.29771574437295   28.59848767114880
C         7.10765289837989   22.70536681533969   28.79009309249194
H         7.45537607376099   21.91604942486887   28.12751991479781
H         6.69679453963386   22.24455183098270   29.68628609613125
H         7.96651501567092   23.30930388994259   29.07417697668895
C         3.45932162768833   24.66814260427313   24.66098466194455
C         3.37342908464958   24.96149184658053   23.30303940377796
C         3.49257639068314   26.22840963286227   22.77453236817837
H         3.40697300198619   26.39413229572804   21.71140521094517
C         3.72636100654983   27.27277979178707   23.65537315437611
H         3.82610344354826   28.27933100697808   23.27779591200471
C         3.83568180618087   27.02275622777482   25.01158347120525
H         4.02665674840479   27.83915944138053   25.69324959015205
C         3.69553931937653   25.73737675536629   25.51575380540684
H         3.77595505964408   25.58068771857706   26.58162378622102
C         1.03537416353296   23.94731665945960   26.87394781821114
C         2.07553409016201   23.80373412842283   27.78081162836708
H         3.00158853739098   23.35120487300216   27.43862973307859
C         1.92275845948025   24.22775746060103   29.08894787604987
H         2.72846124546936   24.10832521909299   29.79693375906465
C         0.72995507931489   24.80309590505907   29.49227918452139
H         0.61055591744607   25.13955987706832   30.51165643695655
C        -0.31559673284111   24.93922417395251   28.59204737376824
H        -1.24953078154272   25.37815959004946   28.91155194750399
C        -0.17121716759190   24.50098610744967   27.28956014397924
H        -0.99278435016833   24.58440557548835   26.59150556678739
C        -0.04256757434280   21.93696203334121   25.49729492570900
C         0.30489278767043   20.97854076643406   26.44601733309430
H         1.29709184937525   20.99997061707684   26.87849429985893
C        -0.60226808260864   20.01195025650740   26.82879160475279
H        -0.32569019394453   19.27525566851992   27.56866928781114
C        -1.86589205311844   19.98785401334137   26.26043199599946
H        -2.57676715215877   19.22928219616646   26.55225645905588
C        -2.21578031009886   20.93804279939643   25.31813083656721
H        -3.20075724786136   20.92191264794435   24.87482751158651
C        -1.31269189257380   21.91736479777653   24.94053027888708
H        -1.60753340173648   22.66597806000145   24.22007823097793
C         0.42260239795106   24.44690009631084   24.12273720174170
C         0.39670455327992   25.79983452484466   24.44601777114406
H         0.78500827093870   26.13401187969810   25.39741540699400
C        -0.10935672316318   26.71961849796815   23.54593240078421
H        -0.12431482201799   27.76807945450393   23.80508371062790
C        -0.58338027561290   26.30276680314475   22.31315856833307
H        -0.97517782816841   27.02444255360521   21.61157435682877
C        -0.53956919490661   24.96003627156510   21.97575051854060
H        -0.89304831127848   24.63387184239584   21.00798958306094
C        -0.02943641920725   24.03776426348794   22.87071531282621
H         0.03532307803362   22.99296931448719   22.60407002691434

