93
CSD_code = YISBEH | q = 0 | S = 0 | Stoichiometry = C40H46I2N2O2Pt | MND = 4
Pt       -1.75405526637167    5.44556737353691    3.96206145128354
I        -1.75644459994884    8.06466053359222    3.96386586859250
I        -1.75503372364718    2.83437288054937    3.95911439295265
O         8.15236306868006    6.90652000800156   -4.04049389795519
N         0.61478789342253    5.56534275032441    2.00298024984374
C        -0.28126267526590    5.48247284046665    2.74275302160129
C         1.65240165475659    5.72719645002670    1.15086921229143
C         1.96938287018935    7.00708881896637    0.69514014625250
C         3.02997955407276    7.16941809761561   -0.16861370216764
C         3.78929281122408    6.07616460220745   -0.59321645673293
C         3.45074905005833    4.80385877636239   -0.12638856433008
C         2.39360088201924    4.62073488459630    0.73851978316960
C         4.92014797241507    6.26518912067295   -1.50664633237935
C         5.75520259968264    7.37879999387288   -1.38900501767695
C         6.81916510790448    7.55689936704562   -2.24158806444930
C         7.08391126978202    6.63087478939610   -3.25488160334630
C         6.25450110002340    5.52025336938241   -3.38300950185409
C         5.19336668540669    5.34490033430676   -2.51410657284315
C         8.50986538159325    6.00281930249513   -5.06749355304774
C         9.75363003909419    6.55659751314055   -5.75397917527874
C        10.26119102432337    5.62737127956406   -6.85239543438400
C        11.51029696599086    6.18640575063406   -7.52969573488675
C        12.05241691470826    5.24634399579279   -8.60354811404467
C        13.30370254782892    5.80602227761865   -9.27619741909945
C        13.85601583728442    4.85396717933476  -10.32979853463395
H         1.38038025571583    7.85141128371403    1.02102694904894
H         3.26426329464422    8.15621937292261   -0.53747867452399
H         4.03878174751012    3.95119794269536   -0.42984980763412
H         2.13612007809769    3.63796259517591    1.10428958400399
H         5.58280395274060    8.09627844993743   -0.60079189610629
H         7.47227179661642    8.41000984207969   -2.14757125978885
H         6.42360264313183    4.78849679021803   -4.15737037614779
H         4.54978924449302    4.48712836692245   -2.64377746771228
H         8.72289717807394    5.01174615129139   -4.64269706193727
H         7.68892851159733    5.90460901162109   -5.79152054645116
H        10.52915133216279    6.69913682869456   -4.99951674671759
H         9.51446197550240    7.53546017816393   -6.17271355624855
H        10.49092836094495    4.64959394503419   -6.42216293568983
H         9.47704588167999    5.48351445891645   -7.59948689459996
H        12.28277825979141    6.35458562412274   -6.77584483446217
H        11.27423888063393    7.15286169130511   -7.98064164657232
H        12.28920435894066    4.28030819865807   -8.15120532536403
H        11.28197853009261    5.07654142860782   -9.35943578478190
H        14.06806085926611    5.98992914093211   -8.51770412096853
H        13.06408475939189    6.76440368071234   -9.74241455505908
H        14.12286908534376    3.90023033070207   -9.87952270054803
H        13.11479285640150    4.67019523786922  -11.10458842398907
H        14.74411367847376    5.27298753009203  -10.79695942297713
C        -3.22780020971360    5.48288064838970    5.18016050839906
N        -4.12643030862295    5.56577191293036    5.91677901584194
C        -5.16302996633392    5.72729711866779    6.77017346636592
C        -5.47955394999243    7.00699266260271    7.22677464771346
C        -5.90502182677379    4.62088465384917    7.18121583927819
C        -6.54074962955177    7.16922899912922    8.08980749727367
H        -4.89013671285210    7.85131004910978    6.90164395205953
C        -6.96274168533215    4.80390756281469    8.04543168908953
H        -5.64811660068946    3.63832346837974    6.81444298765965
C        -7.30092903583812    6.07604111066016    8.51297839136148
H        -6.77511433590329    8.15592775344388    8.45890561181043
H        -7.55176783048854    3.95141062932414    8.34742147234022
C        -8.43218908622443    6.26496141082763    9.42590565466521
C        -9.26679889052269    7.37891141986779    9.30849471994576
C        -8.70601874801521    5.34428310540493   10.43283459899314
C       -10.33088278701956    7.55703798222161   10.16091983933221
H        -9.09386247549829    8.09669961824534    8.52067845893852
C        -9.76722566838040    5.51969904860748   11.30163219476145
H        -8.06277591355750    4.48621825220115   10.56223525886015
C       -10.59610652350541    6.63076196070397   11.17386239722001
H       -10.98364914139917    8.41042932699385   10.06713715948902
H        -9.93673631518519    4.78767474500125   12.07565268261350
O       -11.66444047036237    6.90666577299034   11.95955728411317
C       -12.02201860752201    6.00307061219676   12.98661659160601
C       -13.26556047439111    6.55702895939784   13.67336755785722
H       -12.23534512681542    5.01205063320400   12.56184953540557
H       -11.20097520653697    5.90467518863059   13.71049959960442
C       -13.77223089150775    5.62831348063879   14.77262137622886
H       -14.04152105950878    6.69885666645777   12.91922577961879
H       -13.02646100625701    7.53622257025718   14.09136581533310
C       -15.02173058802292    6.18676933684018   15.44966189916678
H       -14.00120032317846    4.64999363349647   14.34321413822561
H       -12.98788029406585    5.48571349378900   15.51973685472704
C       -15.56294451073371    5.24680576048753   16.52405288429225
H       -15.79441426651497    6.35386142120245   14.69577829667834
H       -14.78644804805418    7.15368326310859   15.90002900107519
C       -16.81484661845921    5.80553770321824   17.19632447827508
H       -15.79870091406501    4.28025912605641   16.07226120405879
H       -14.79235666634673    5.07824211603024   17.28006194867506
C       -17.36620332091697    4.85345227910046   18.25039981908865
H       -17.57935453096363    5.98824035120729   16.43769145370805
H       -16.57625773005587    6.76441321936926   17.66204947308693
H       -17.63206180658847    3.89920842638743   17.80060838503244
H       -16.62479733286947    4.67084058000605   19.02528870215890
H       -18.25473505136691    5.27179159668142   18.71734093631914

