67
CSD_code = YISBEI | q = 0 | S = 0 | Stoichiometry = C32H28Cl2O2P2Pt | MND = 4
Pt       -1.28756690197018    0.10073369127761    7.92846595790594
Cl       -0.00669405501235   -1.70488748063926    7.24197260617027
Cl        0.31633380284943    1.70840453968281    7.53387542808298
P        -2.55782833615591    1.86616244554069    8.51544921783074
P        -2.60081171551105   -1.67357198448875    8.40238006085664
O        -4.08391409602589    1.49026205358084    8.95862764035492
O        -3.88079700849676   -1.50150776233314    9.39716228937629
C        -2.16666974956380    2.98399287009589    9.87866114726480
C        -2.87870989192809    2.95345266856553   11.07235902561810
H        -3.70610475423996    2.27010252406315   11.18685643776069
C        -2.52780978796223    3.81090887983289   12.10026341228198
H        -3.08452633298947    3.79148461440861   13.02597810373575
C        -1.46697876077333    4.68837435114305   11.94618292055868
H        -1.19508958621420    5.35306383789760   12.75309378506760
C        -0.75197673326754    4.71155577362618   10.75877996858366
H         0.07797666231217    5.39198158032963   10.64001873871194
C        -1.09677811274631    3.86132248084697    9.72462623438737
H        -0.53743601959915    3.85630350338682    8.80033358439766
C        -2.82365153395954    2.95129070441790    7.07701871326276
C        -2.49920482550728    2.46845329117626    5.81598720837726
H        -2.03517173069083    1.48812915518662    5.72742425686700
C        -2.73181636417654    3.24666905367067    4.69672838763431
H        -2.46925474417755    2.87744882733838    3.71665148160634
C        -3.29461226454488    4.50496448714896    4.83798536001355
H        -3.47020016900123    5.11724714226379    3.96575602726602
C        -3.62969128627738    4.98350118103204    6.09517523312183
H        -4.06762251661186    5.96535449619312    6.20011246455357
C        -3.39810037118146    4.20835281948332    7.21706697435369
H        -3.65333531231320    4.57140454859850    8.20312871028491
C        -3.27941695246784   -2.65419151762607    7.03141531676323
C        -4.20936704906469   -3.65589031337811    7.29197065127971
H        -4.50346255559465   -3.85799234208461    8.31337289928268
C        -4.74613522745752   -4.38294717424061    6.24508915609649
H        -5.46008899806764   -5.16882373425937    6.44486993827860
C        -4.36572174671609   -4.10536954944024    4.94112955412487
H        -4.78287403674403   -4.67896171391675    4.12664258132902
C        -3.45566320637901   -3.09338779805951    4.68008438741457
H        -3.16595943810388   -2.87590030478789    3.66299424546722
C        -2.91559855696683   -2.36343462510083    5.72352717036182
H        -2.19246373461847   -1.57831646288464    5.53966224705859
C        -1.70836864907108   -2.77174952151202    9.52967878130282
C        -1.03782082285312   -2.12364835824095   10.56212061297001
H        -1.08321015136247   -1.03877096724599   10.62113689348529
C        -0.30377897463918   -2.85372176097019   11.47611741082133
H         0.22226811559359   -2.35181989101287   12.27482346482851
C        -0.23087904864723   -4.23297705186771   11.35330825814881
H         0.34949322885810   -4.80641945272746   12.06105852926330
C        -0.88349612952089   -4.87541002490805   10.31482370881052
H        -0.80865897158567   -5.94813464256877   10.21177533332148
C        -1.62331312774777   -4.14840119544937    9.39714813571968
H        -2.11146050685109   -4.64651703921103    8.57219314156909
C        -5.59731775886315   -0.27422109161106   10.50561189778371
C        -4.75974509911782   -0.10015623368124   11.59757187465091
H        -3.71206969384556   -0.34275995753748   11.50674600230771
C        -5.26776178890746    0.37164368418942   12.79605535248178
H        -4.60801746033470    0.50404631806167   13.64096244233798
C        -6.61272973200152    0.67695163897288   12.90987979598350
H        -7.00798025418636    1.04770066225190   13.84382277704893
C        -7.45252142250857    0.50198486151525   11.82208990549821
H        -8.50365652462552    0.73468258589676   11.90665475879773
C        -6.94793407692847    0.02747058141952   10.62490234554284
H        -7.60471437446963   -0.11166459606207    9.77772766418270
C        -4.80226013607396    0.48973512685914    8.27423839836006
H        -4.26671956821941    0.15873115477320    7.37067301631382
H        -5.76661595410799    0.91675468071621    7.98095215778835
C        -5.04758470454033   -0.73359130507381    9.17406685575831
H        -5.78735241551506   -1.36747696252141    8.66088096117385

