46
CSD_code = YISCUB | q = 1 | S = 0 | Stoichiometry = C22H16N4O3Re(1+) | MND = 6
Re        3.93806772590732    2.92445124227395    9.95972585167797
C         2.83513338708959    1.84744457402645    8.73959295897385
O         2.22240515536174    1.24957504462535    7.98971228266425
C         3.90989023095613    1.47363112295295   11.26688076745000
O         3.94175530436643    0.60109955502519   12.00440968379534
C         2.35708745382342    3.78173105931490   10.72564588159265
O         1.44825151552704    4.31539051407850   11.16497032354787
N         5.99644495518465    4.34783088674319   12.05742923124269
C         5.29923036760833    4.25282487461956   10.91861659112651
N         5.72440947073795    5.29705898527191   10.14677947448462
C         6.68057357154603    6.02755814788322   10.81513683063128
H         7.15695051893535    6.89500960246734   10.41054852223382
C         6.85240036467428    5.42374346139647   12.01107645179604
H         7.48902231150421    5.68138000345371   12.83203246383525
C         5.86956168349667    3.48455577606049   13.17477556975591
C         4.60897941837983    3.18334818000925   13.67386218623936
H         3.73168788151812    3.61650900567966   13.21605318699132
C         4.49702246274602    2.34034452381079   14.76542199096145
H         3.52012500464867    2.10529163267317   15.15628722709408
C         5.63144249388687    1.80714481320053   15.35465908267593
H         5.53946108252888    1.15150792664993   16.20592878994036
C         6.88613689291079    2.11756770496994   14.85583611713983
H         7.77057367371233    1.70452846120532   15.31503554528168
C         7.01180822204296    2.95856988358179   13.76454174050961
H         7.98766742884477    3.19657907144303   13.36618271263058
N         4.24125088504287    4.60465478402473    8.53028336600465
C         5.15835752793495    5.51566959401022    8.89277535132566
C         5.49994459484689    6.59644435955765    8.08846572371485
H         6.24242586506847    7.30814279922090    8.40839251558635
C         4.85804696498383    6.74414403640214    6.87186683521179
H         5.09893633710109    7.57517724424125    6.22843753103473
C         3.89732813743534    5.81331279451446    6.50284266829370
H         3.36619500869016    5.89925211710520    5.56971334701951
C         3.62345659045313    4.76418291409718    7.36042416525911
H         2.87421335637808    4.02581925858500    7.10752235611651
N         5.79477652041206    2.05362274489419    9.03856782486498
C         6.78491149070122    1.57456434485921    9.79712369120555
H         6.64496835958912    1.62430088357325   10.87004532806972
C         7.93906594267661    1.02427669835586    9.27029603715667
H         8.70214930802559    0.64788664506732    9.93215443199150
C         8.08777981540855    0.95955159962212    7.89352684514941
H         8.97340872450659    0.53266648463722    7.44996064368342
C         7.06191268182696    1.45150995798237    7.10275724218004
H         7.12005023013087    1.41935800731082    6.02677532684050
C         5.94035640812873    1.98255659980913    7.71435286483693
H         5.12537667272057    2.35833007871357    7.10797444018290

