77
CSD_code = YISDIO | q = 0 | S = 0 | Stoichiometry = C23H44BClF4NP2Rh | MND = 6
Rh        3.56460943422850    0.74301921863149    1.74886762653869
H         2.58395024382055   -0.35004579882084    1.74032177659813
Cl        2.99847809455980    1.02548662754245   -0.43540482997239
P         1.88698212010815    2.08840833502746    2.56421426983191
P         5.16699925992455   -0.85149038827609    1.32641580995746
N         4.13741694870466    0.56418164828422    3.69409911716482
C         2.61782955046500    2.39783872135914    4.23081214963972
H         3.27492396686934    3.26715383761798    4.11027537709291
H         1.87863728237691    2.63293355835339    4.99829065318638
C         3.51926162450487    1.27914784456900    4.64496756357415
C         3.79315268938221    1.07089171623692    5.99038434010586
H         3.27317492476026    1.65091422681632    6.73613505008628
C         4.75340340356684    0.14579505155222    6.35588805155026
H         4.97286725080720   -0.04039617711339    7.39566359204445
C         5.46905568636243   -0.48828236628623    5.35716603219225
H         6.28461245636898   -1.15114306883027    5.59840638842136
C         5.15832359049014   -0.23801172026396    4.02730703679424
C         6.05134517888600   -0.75320829916486    2.94381301299990
H         6.54888561971184   -1.68132682314687    3.22949503350960
H         6.81691842303323    0.02151938846178    2.81906224467465
C         0.25762317770268    1.21146617915147    2.99734613547545
C        -0.78454830300035    2.11391207374578    3.65393118525690
H        -1.62251228016734    1.50197935367798    3.98733611378598
H        -1.17503421064481    2.84955777668448    2.95718345123218
H        -0.38234951297832    2.62621315777608    4.52561500119670
C         0.59948660793890    0.08576512810347    3.97953345636141
H         0.88444807671099    0.47295736330289    4.95505962916318
H         1.41156448431741   -0.53257259630780    3.60103096678240
H        -0.27088485059759   -0.55434937418768    4.11671051076408
C        -0.32058207564566    0.59430514964156    1.72280047417030
H         0.44652384754517    0.04775802376122    1.17716364098406
H        -0.72476594464485    1.35199283299318    1.05957623925419
H        -1.12339658418493   -0.09738101704510    1.97388349142488
C         1.58185551283859    3.81608663072073    1.86336660295930
C         2.93631652724896    4.28557313643758    1.32701484592741
H         2.82584341084237    5.25742901153190    0.84846188458617
H         3.31976788828955    3.58880012028966    0.58232716725534
H         3.67448304949664    4.39163118259144    2.11804581708922
C         0.61683384910930    3.70482420118308    0.68238972945402
H         0.63184675488429    4.63190229768845    0.11116118075138
H        -0.40667404681008    3.53324391372770    1.00695939497420
H         0.92750427124472    2.89646809050694    0.02113620394365
C         1.08429567935002    4.83298852555574    2.88998681206081
H         0.96868160477929    5.79469012470677    2.39122287514906
H         1.80311051470899    4.96718478994520    3.69469441788797
H         0.12333475723452    4.56513383961282    3.31661290209052
C         4.56098660112155   -2.65216603084022    1.30962046933851
C         3.53382573359929   -2.81211027171663    0.18766147036186
H         3.01117586612577   -3.76173425626030    0.29248005166595
H         4.00431319090920   -2.79350848661996   -0.78992431018233
H         2.79952525692407   -2.00930257909153    0.21981527911842
C         5.67300898556407   -3.68523233667424    1.14328708043172
H         5.25390480386125   -4.68145139000490    1.28341662073320
H         6.46146236394748   -3.55166520973587    1.88120301094446
H         6.10678241057518   -3.65116741709538    0.14839080404474
C         3.86949300703013   -2.90706403794545    2.65330911433784
H         3.34998380786971   -3.86363233580325    2.61952496252467
H         3.13233463318231   -2.13529502472178    2.86761233680605
H         4.58136995961844   -2.94365636955708    3.47471390798336
C         6.52251538978221   -0.56072553177490    0.04321578601076
C         6.72133496915446    0.95618875892305    0.00216594243533
H         7.46050793541787    1.21220788582539   -0.75519956746696
H         7.07643262835618    1.34981522677075    0.95204550832787
H         5.79078729552531    1.46049719968190   -0.25684772118631
C         6.00955456186088   -1.00960540119884   -1.32560588644890
H         6.65631472659335   -0.61119302682314   -2.10594685849301
H         5.00377931468273   -0.62523132116458   -1.49272908110906
H         6.00286002625392   -2.09268753065952   -1.42238945757944
C         7.86034668515520   -1.22167808667045    0.37356910881866
H         7.79629889106599   -2.30405486183875    0.41284629162406
H         8.26210252516171   -0.85808675954995    1.31630067707204
H         8.57324987125217   -0.96033676922889   -0.40775002418667
B         6.10691689211912    3.12578279955515    2.90925644221206
F         5.15927844956107    2.43765304147203    2.05217060900466
F         5.36739711423841    3.80439346484810    3.85346323216336
F         6.86933071455634    2.14807555551925    3.51632188778369
F         6.85982543441385    3.95482565399830    2.14607188695053

