89
CSD_code = YISFAH | q = 0 | S = 0 | Stoichiometry = C28H52NiS8 | MND = 4
Ni       -0.94536286795781    4.60124334692264    6.76838883141887
S        -1.43465220756601    3.61971219197045    8.62010354081972
S         0.58825275178269    3.15142450586428    6.34855306269840
S        -0.40774505511471    1.17953903624220   10.04747220369365
S         1.63800605124415    0.72006409559407    7.77388739176192
C        -0.36656195496690    2.28787675497193    8.69796075998102
C        -1.76682085764752    1.87150995535327   11.05544996730510
C        -1.98558711334681    0.99497912703430   12.27650197180478
C        -3.10921966937465    1.54223095789817   13.15451693408551
C        -3.34213208603023    0.66418271450435   14.38149019935413
C        -4.46047840812813    1.20308419470072   15.27027773977734
C        -4.68312707669303    0.32232492217332   16.49344701666878
C         0.54487146348232    2.07908049933662    7.67880743455533
C         2.55606138410911    0.87778427301104    6.20099857367074
C         3.55229338238059   -0.26388280006927    6.08528448329229
C         4.41948352680710   -0.14956115045365    4.83086015008974
C         3.63266044685134   -0.32721636461018    3.53400045494825
C         4.55101179835547   -0.36018187330136    2.31425422420086
C         3.76532937329497   -0.52963102777490    1.01980124139868
H        -1.48306161214968    2.88622624449722   11.33527317958507
H        -2.65485565195703    1.90861949570654   10.42417815998167
H        -2.23230361062366   -0.01836021229096   11.95295464950150
H        -1.06015146060881    0.94299762861585   12.85384424627893
H        -4.03002571459562    1.60084310525538   12.56972415136083
H        -2.85678056422597    2.55534839325937   13.47568393764144
H        -3.59541744006073   -0.34796190491404   14.05779791644238
H        -2.41865869595790    0.60336600874859   14.96191711377774
H        -5.38501783231482    1.26128718715696   14.69142882513870
H        -4.20841832096552    2.21578576352969   15.59300115361273
H        -4.95473367802869   -0.68710334705079   16.19227416746170
H        -5.48196898585662    0.72218176866976   17.11346692024216
H        -3.77747747826242    0.26731900560047   17.09361766216249
H         1.81882175025127    0.85947204389336    5.39982064994625
H         3.05766468998455    1.84575229429881    6.20995947540085
H         3.01277591471846   -1.21310360271172    6.07390267912675
H         4.19584790557424   -0.25825246301725    6.96779725046430
H         4.91847785378992    0.82200844806348    4.82300951287683
H         5.19421031527611   -0.91806723013105    4.88021494384372
H         2.92080327731994    0.49165018583533    3.41648220030469
H         3.06574580495765   -1.25997048948640    3.58119448529526
H         5.12587072134245    0.56769574972294    2.27150324477011
H         5.26066476688106   -1.18421743350960    2.41845346779952
H         4.43624101437788   -0.55327244327950    0.16435655003166
H         3.06778494529058    0.29441822092667    0.88648231869337
H         3.19823992352628   -1.45788529892088    1.03686442526980
S        -0.45692403927664    5.58250065073649    4.91629913254127
S        -2.47946962209539    6.05039570603056    7.18832587934137
C        -1.52498031938900    6.91440285293892    4.83894905870486
C        -2.43621684924226    7.12305283120162    5.85830764057819
S        -1.48398396743239    8.02300709185769    3.48965990546924
S        -3.52933871127306    8.48212922276226    5.76379630537054
C        -0.12436058000608    7.33165308505708    2.48196822159555
C        -4.44637872884864    8.32472874038755    7.33730293828878
C         0.09497285643500    8.20906943968524    1.26164401688406
H        -0.40789641984858    6.31711502593525    2.20127039236229
H         0.76337336625072    7.29416234741956    3.11364488252582
C        -5.44227841540113    9.46656950558075    7.45398595134880
H        -3.70850565879159    8.34282058577248    8.13789496634348
H        -4.94819131998978    7.35687248985171    7.32868178015508
C         1.21921222781601    7.66267626354268    0.38386901134887
H         0.34134282079742    9.22222713580812    1.58602489970336
H        -0.83011589534566    8.26131813015265    0.68377206017861
C        -6.30809697487478    9.35254294637518    8.70938867566791
H        -4.90258277514452   10.41569584770153    7.46460915868260
H        -6.08680290416765    9.46089788816663    6.57218920215830
C         1.45283113164145    8.54167472431829   -0.84228776142136
H         2.13967156688416    7.60373035623554    0.96916735286654
H         0.96712467891384    6.64978257215186    0.06173762745477
C        -5.51976200438134    9.53079230461988   10.00526284941546
H        -6.80687919867085    8.38086708471798    8.71810229579753
H        -7.08302899208378   10.12088483911819    8.66060705432544
C         2.57188619219836    8.00374840582108   -1.73076859855526
H         1.70568466889305    9.55362058933413   -0.51765305640099
H         0.52975053070762    8.60275675528953   -1.42330141055509
C        -6.43679594643965    9.56358861038495   11.22601236665630
H        -4.80740135976813    8.71226296538644   10.12214870434198
H        -4.95332254837398   10.46379877363640    9.95722181990875
C         2.79516412019062    8.88541863010626   -2.95316671666474
H         3.49604814075705    7.94535670878218   -1.15134296148526
H         2.32029602062244    6.99121724104599   -2.05438041068791
C        -5.64969135833660    9.73412470299891   12.51946115704328
H        -7.01095416326324    8.63532426201786   11.26982036198725
H        -7.14714621670291   10.38709111038555   11.12232609646610
H         3.06625624790594    9.89470713006778   -2.65107065180964
H         3.59455328049058    8.48624706583773   -3.57292766601498
H         1.88990797749245    8.94058985379174   -3.55391205216006
H        -6.31963367119543    9.75757607194902   13.37566555233708
H        -4.95137457295252    8.91065586344802   12.65231010653952
H        -5.08332333386880   10.66280511381623   12.50142439283172

