83
CSD_code = YISJOA | q = 0 | S = 0 | Stoichiometry = C41H37CuO2P2 | MND = 4
Cu        4.02216396348223    4.46692625886628    3.53519080913794
P         6.16008186443534    4.01553148746177    3.60487310918507
P         5.08146626951563    2.98185441134259    1.02789318875041
O         2.42980917093058    3.56872104581539    4.10120054761444
O         3.29575301040176    6.13711336309345    2.88636575034699
C         7.58962355041067   -0.33827772814978    3.76060055496422
H         7.88312629512203   -1.37657956223894    3.80719036521924
C         6.87258418433640    0.22714128652832    4.80362779618659
H         6.60498468185528   -0.37089887186098    5.66248981255650
C         6.49124769475254    1.55261701716344    4.73760393852680
H         5.91551197911347    2.00476803601365    5.53553459501286
C         6.83364355243212    2.32907717532754    3.63268763800710
C         7.54044870292500    1.75387982937919    2.58436583667718
H         7.79074850993488    2.34257641204161    1.71218878077292
C         7.92130748088039    0.42545197753609    2.65483915675657
H         8.47131886438412   -0.01774006583412    1.83729265853406
C         8.66461543402166    6.46885060839551    0.64348680411974
H         9.23791822658977    7.05537680284460   -0.05971563951264
C         7.28890273273461    6.62381246825157    0.71644253802119
H         6.79192620422419    7.33807003719796    0.07594147110418
C         6.55677202054264    5.86290984924815    1.60894907642243
H         5.48286612373568    5.97453481050530    1.69962279529732
C         7.19861921910478    4.94090460335964    2.42862428035136
C         8.58145335237908    4.81148077325648    2.37989116519957
H         9.08441401978963    4.12045214961876    3.04190745881378
C         9.30862549043415    5.57045181406396    1.47928751516968
H        10.38287975244982    5.46261420790706    1.43069339602423
C         7.90337133465168    6.01535677883841    7.36940352340293
H         8.29513292113021    6.51770292846198    8.24179091743343
C         6.80366007654031    6.53428183954865    6.70451871319096
H         6.33662654421072    7.44249075167913    7.05686628206150
C         6.30308257634679    5.88240842680472    5.59384655276378
H         5.43708162458999    6.26370816165644    5.06377973064596
C         6.89897129668273    4.71150140138628    5.13360724691534
C         8.00373908197853    4.19737409749510    5.80209955857099
H         8.47073898147809    3.28421074231464    5.45978850402749
C         8.49844414017153    4.84880260663508    6.91821276325443
H         9.35465946944186    4.44418621810971    7.43893249992283
C         4.28206760318743   -1.36459675165991    2.30572730507257
H         4.10742882234201   -2.37767167993851    2.63799090386517
C         4.94820769380075   -1.13046425595196    1.11526062820569
H         5.29811002444048   -1.96120206501643    0.51895271002662
C         5.17462317789245    0.16443559156068    0.68375655571496
H         5.70832664885085    0.33610219681937   -0.24022551725869
C         4.72120065507819    1.24017374406538    1.43811752913185
C         4.07578526471600    0.99953171208051    2.65071387974110
H         3.75826525052359    1.83627722178666    3.26193146940353
C         3.84986533377484   -0.29602079366054    3.07432539391016
H         3.34251207027073   -0.47280078917886    4.01160679496888
C         6.63074104966657    2.72539094450514   -3.31360860554188
H         6.99868899358777    2.67955432742345   -4.32825567916491
C         5.35232270261353    2.27526298488030   -3.01978538619796
H         4.72622170507744    1.87842844331344   -3.80612633406130
C         4.87502935680473    2.33452314285769   -1.72471008545845
H         3.87660853492081    1.98753252652558   -1.49475408086424
C         5.67843207164651    2.84030412516577   -0.70558715549645
C         6.95527968784254    3.29624073823569   -1.00845356853610
H         7.57432840542107    3.71009157142911   -0.22412817255237
C         7.43068121762761    3.23793400965501   -2.30740141414645
H         8.42458815736369    3.59649745341486   -2.53346546982779
C         0.99355517909548    4.80829682082534   -0.07168647982039
H         0.05025913227012    5.26422173933388   -0.33667054056396
C         1.01438444213939    3.59243299799785    0.58806457378569
H         0.08655887638957    3.09600296546163    0.83503136306649
C         2.21710138952126    3.00158677703312    0.93486805343397
H         2.21691575526987    2.05158992518446    1.44868482312534
C         3.41512869664613    3.62799160444269    0.61635464068979
C         3.38777218066664    4.85194272296628   -0.05024839720110
H         4.32167421632983    5.33584550044794   -0.30511562484368
C         2.18577841169415    5.43765004781456   -0.39241117402453
H         2.17628483832606    6.38739148436959   -0.90804199750593
C         0.09302771079037    3.37209667110631    4.39782947640841
H         0.38636845413107    2.37083714324847    4.70287629315722
H        -0.63121659470081    3.30969951043130    3.58890718015343
H        -0.37805922197431    3.87768306346738    5.23883991306130
C         1.31535641619652    4.14649809173686    3.95015688812413
C         1.08991491913375    5.41845048522098    3.42202943575825
H         0.06114135860043    5.74464831360017    3.37691998635749
C         2.04561432195280    6.31134797756767    2.93293024854926
C         1.52811705965508    7.63247766123728    2.40351960654345
H         2.35918021957466    8.22999906500639    2.03778379986027
H         1.01397157743133    8.17568197253069    3.19393095646753
H         0.82343580985929    7.45775893258287    1.59364358184381

