49
CSD_code = YISNAR | q = 1 | S = 0 | Stoichiometry = C19H26ClN2Os(1+) | MND = 9
C        -0.12672909009757    5.81378793327337    3.07707320727533
H         0.63903631266734    5.07554051148698    3.27325331418765
C        -1.41511182294490    5.42483546834996    2.77162434594566
H        -1.65893534695029    4.37708368054811    2.71271904799856
C        -2.38948953947043    6.39935015968263    2.56000385001804
H        -3.40371702051188    6.11589677111138    2.33046479869555
C        -2.03432328209049    7.72734545286947    2.66363393244887
H        -2.75521428345503    8.51620355273560    2.52383348265953
C        -0.71211021593518    8.05760528774190    2.97359213658949
C        -0.17686654985849    9.37201102712362    3.12064903172860
H        -0.78364742624322   10.25862842714091    3.00241883514182
C         1.73134824898934   10.71573213429565    3.54866275262351
H         2.75100485403298   10.55377655722315    3.90702229333044
H         1.19224239965233   11.29538248274780    4.30507881807402
C         1.76766224263988   11.49984158402599    2.22900700803125
H         0.74865679014438   11.67698032714037    1.88403550360894
H         2.22890827512844   12.46873372046059    2.41979554703389
C         2.54726122676378   10.75868950772500    1.15162570079639
H         3.59350427004105   10.66575519146857    1.43216846281488
H         2.49643083723163   11.30116355200109    0.21191614740239
H         2.12781527688675    9.76394535614842    0.99638218741692
C         4.50108487799026    7.54866207332010    4.69126793749345
C         4.56697555756182    8.23254024690380    3.47138148806748
H         5.05597472585663    9.19554925310064    3.42164394663693
C         4.08078986604538    7.65405969467472    2.28786912692574
H         4.21566579025486    8.17165947435269    1.34686050600726
C         3.55155869543541    6.35033642329455    2.28094119182435
C         3.51222591070262    5.64958531443836    3.50650453637898
H         3.19496704991140    4.61489777544229    3.51590347495560
C         3.95572751482635    6.24427902761836    4.68404619197937
H         3.95448032658816    5.67208305139131    5.60288450297027
C         5.08624111501694    8.12425079944121    5.95559943041233
H         4.80516661712042    7.47160268286709    6.78786016773828
C         6.61498219056350    8.14069597197330    5.84821557618867
H         6.99907623044235    7.14174379056608    5.65445363423589
H         7.04313464481911    8.49781188575033    6.78041963321414
H         6.94283981044587    8.79835785658041    5.04653893632211
C         4.53998370604167    9.52313892214382    6.24839384912429
H         4.87884757036784   10.24580708083750    5.50938552533662
H         4.88973256471585    9.85382742172516    7.22212970308163
H         3.45079490412774    9.50679135558863    6.26505009332245
C         3.18887886817439    5.67345041887104    0.99547940338679
H         2.88455433473960    6.39374336293376    0.23960655464081
H         2.39080139432045    4.94786155141024    1.13559576546887
H         4.05999272205015    5.13816867693623    0.61513594609218
Cl        1.19842700515249    7.76930158520109    5.87287167423428
N         0.23710264262842    7.09400146808679    3.16658459747913
N         1.09960623538485    9.42176584369141    3.40195187008935
Os        1.99206097209819    7.75353830555238    3.75406433257640

