107
CSD_code = YISPAT | q = 0 | S = 0 | Stoichiometry = C54H45ClO4P2Pd | MND = 4
Pd        6.72900280893581   11.40115116705742    5.34434466918628
Cl        4.98495667077043   12.55233326071959    4.32860400981568
C         9.43383346420178   11.02748831863490    5.72643696954731
O         9.30382838928609   12.14473585043767    4.98280185236209
H        10.22748476504335   12.42133108268633    4.72736832163733
C         8.23817391664989   10.43757017081285    6.14835085058691
C         8.26948285695506    9.29913979123908    6.93354852582209
C         6.98293205896017    8.65603550941263    7.36368150992098
H         6.13947233408128    9.15991146979774    6.87245487975917
H         6.86206944189224    8.73330546578166    8.44430448620485
H         6.97017876716370    7.60000252246510    7.09662024207500
C         9.50110652964531    8.75575618521504    7.29206017791980
H         9.55179415516865    7.87388508927332    7.91455133512682
C        10.69022646686820    9.29278411113707    6.82060050595136
C        14.31205809449522    8.34780957280121    6.54204358245738
H        14.29954728750009    7.49972443475373    7.20900973127296
C        15.44940840545186    8.69991761837698    5.84178213211350
H        16.35737689662893    8.12618328888812    5.95523690918559
C        15.43326306184691    9.78216336593337    4.98372087705896
H        16.33410673279035   10.02897637200981    4.44444121464178
C        14.27794823324059   10.55213865841674    4.81996274168064
O        14.18865475931841   11.61489040980964    4.01048321162074
C        15.27166617015171   12.03336274270311    3.19016636097292
H        16.21070954317221   12.00128744858127    3.76134442616208
C        14.96787014320374   13.48001224664382    2.81464810837582
H        14.01040819119585   13.52848699776555    2.30398097276881
H        15.74614634215160   13.87165877295680    2.16592077135144
H        14.90625299633807   14.09026287878820    3.71126358736316
C        15.38177992798440   11.15079863178939    1.94630046226870
H        15.51599053985160   10.10589381976354    2.21740530250668
H        16.22602244778250   11.46726182282026    1.33979986881490
H        14.47244380077953   11.23843877731770    1.35657138373382
C        13.11212079827724   10.20387395077091    5.54532693477955
C        11.88351061223092   10.99795788989609    5.40653052704585
O        11.84620820372974   12.06480614746696    4.78349118272822
C        10.67845460355286   10.44729937063988    6.01190035824861
C        11.95107814574440    8.62754252407671    7.14561509480472
O        12.02825584109613    7.71704751228863    7.95569109143960
C        13.14596266045885    9.08796112621525    6.39374795566773
P         7.19808743691708   10.34978173795693    3.41150875209341
C         6.07032523046246    8.95104652692083    3.16450599425734
C         4.93061342294642    8.90971004160140    3.96218893585514
H         4.75914754361376    9.71368401501154    4.68006567054120
C         4.02249676696079    7.87590713434078    3.82268511807524
H         3.13568683728491    7.84603246072975    4.43864197443227
C         4.25243027625724    6.87753035651254    2.88986728637394
H         3.54515029817373    6.06869939583269    2.77902440395626
C         5.39066240270813    6.91068574584777    2.09908930579740
H         5.56813615861712    6.12813255290086    1.37550357733917
C         6.30147280961080    7.94276078373402    2.23327586348549
H         7.19780777911821    7.96469845300388    1.62746567504424
C         7.00001642631308   11.41619417694362    1.95590424040525
C         7.46255598206483   12.72296645958093    2.09774564107198
H         7.90829002046038   13.02456846073944    3.04174597030363
C         7.33562810690531   13.61945761712196    1.05499242179540
H         7.68843261107574   14.63448809499853    1.16622961912355
C         6.73799567431788   13.21837900995633   -0.12993119579165
H         6.62667992266672   13.92114970527725   -0.94284075480374
C         6.26795386336877   11.92339219295517   -0.26814267070614
H         5.79019728208785   11.61744294880909   -1.18772054091809
C         6.39504376552853   11.01830700372544    0.77186587175943
H         6.00989911595711   10.01381705914764    0.66751717330992
C         8.84296953245218    9.60250376636630    3.18028957077590
C         9.86408936558738   10.27545317865710    2.51865900290162
H         9.65493030041901   11.21073581144195    2.01783817342692
C        11.14763116338170    9.75820743184332    2.51438788647885
H        11.93870866182380   10.29440261136000    2.01181888232416
C        11.42287088660013    8.57070642380607    3.17115582587322
H        12.42876081147176    8.17671956123955    3.18154010766757
C        10.40686068903115    7.89018654228404    3.82412387002004
H        10.62007612761220    6.96597520922273    4.34066628133313
C         9.12467819185878    8.40410234113383    3.83240211813363
H         8.33245379136479    7.88514996210309    4.35582990382762
C         4.51720680659967   12.69193235718570    7.59545287295476
C         3.70676607266855   11.59453505418397    7.31561662373226
H         4.16316171670332   10.69353665465254    6.91174083593183
C         2.34432796257836   11.66343903316466    7.52782824510419
H         1.71587326475358   10.81328500847542    7.30579109006559
C         1.78304717715055   12.83443149487012    8.01360836283614
H         0.71638721714589   12.89525997254001    8.17249213331303
C         2.58473126558712   13.93116706854754    8.28113043784009
H         2.14223450936169   14.84647608023915    8.64673278680942
C         3.95197920654774   13.86567465237015    8.07343579218698
H         4.57384977287374   14.72814725446066    8.26663663902922
P         6.28727483582616   12.47173297409949    7.26196849363666
C         7.00981712824037   14.13256640132386    7.18650511246551
C         7.40670714492887   14.60095336669818    5.93754979293724
H         7.25298079963088   13.97153364447774    5.06115797059988
C         7.97612308530423   15.85610371006588    5.81961287579351
H         8.28552327286447   16.22125992081449    4.85137880633453
C         8.15180930309481   16.64410156773810    6.94543112131058
H         8.59648672852459   17.62449683760431    6.85493130798517
C         7.76412881298974   16.17667978517876    8.19190894345835
H         7.90774957540484   16.79203652687391    9.06847578189100
C         7.19722660777776   14.92177274235988    8.31831770247893
H         6.91045529920185   14.54582681482442    9.29187322291049
C         6.94644397765698   11.83776851035148    8.83547827363692
C         8.33060094834122   11.83829435031638    8.99464476238482
H         8.95166260370404   12.27915167564440    8.22546058426602
C         8.90277719162934   11.28132120887784   10.12085537749322
H         9.97663452415982   11.27782639585075   10.23458761681215
C         8.09763127300278   10.71885774951597   11.09969425465550
H         8.54473027038044   10.27843379247448   11.97841194802717
C         6.72113151489467   10.72117410040358   10.94979135796594
H         6.09315390059925   10.28638931303031   11.71406988874119
C         6.14361801937494   11.27299182389215    9.81881204184522
H         5.06874189098115   11.26608100575026    9.69870386168745

