41
CSD_code = YISPUO | q = 0 | S = 0 | Stoichiometry = C16H19IN2NiS2 | MND = 4
I         7.27295579353343    4.17460595619333    8.16426075716133
Ni        4.90078633788755    4.16498466705111    8.66258618040229
S         5.05514581776272    2.53848526005299   10.09937582433038
S         4.46845091092939    5.85697014511327    7.37016222381337
N         2.16533862903329    6.62204326491693    6.45153058579297
C         3.02263426113234    4.05479695801341    8.93032679603991
C         2.14262279636359    4.98553763857731    8.32545204428828
N         3.14604751579134    1.01499587680232   10.97986466485854
C         3.42972238655206    2.15389104233821   10.35281599692434
C         2.47084195709321    3.11717605026725    9.83703098200037
C         2.77867922785995    5.85564330226347    7.35001598344447
C         0.32968610425584    4.21138847352450    9.70940609990224
H        -0.68782267224062    4.31365952317655   10.05678210299332
C         3.52121970552001   -1.07081907690078   12.01604756059046
H         3.26032393097599   -0.91938145092206   13.06408958381079
H         4.13830201029367   -1.96192815219273   11.93582084437496
C         2.94854320401665    7.45723654197659    5.55530580451727
H         3.64810670041475    6.82728869882954    4.99261605618924
H         3.54065964956080    8.17252337616406    6.13140150047879
C         0.81280972742023    5.07203615658126    8.74179978383307
H         0.16426741358979    5.84513372468616    8.36378407505689
C         0.77599331331835    6.56978996715415    6.03790067064198
H         0.17222547318479    7.24570862211901    6.65608037369438
H         0.38246452253111    5.55521317926574    6.12235366396910
C         2.25698453052032   -1.14420017858942   11.16468264148352
H         2.48803315426246   -1.55862999929561   10.18286103855103
H         1.46773726119686   -1.73782981232647   11.62006284833290
C         1.92048368157804    8.11655260696518    4.64367506444331
H         1.55257026278086    9.04062416693252    5.09111629855644
H         2.33027194415022    8.34319925265519    3.66286658716454
C         4.22225420777493    0.16255603293364   11.45875271047668
H         4.81965637902641    0.69573284520652   12.20236460123727
H         4.88479106703167   -0.08804178514676   10.62149185238821
C         1.87001017811701    0.32746319594008   11.03516517505473
H         1.27782730447991    0.53316104878122   10.14175563374186
H         1.30862491002836    0.64377076966849   11.92304539327194
C         0.80645470179587    7.07491444594155    4.59689913910460
H         1.07820840912110    6.26356043396254    3.92092499275537
H        -0.15122246447765    7.48574280642836    4.28574706331318
C         1.13725113833990    3.22124763787356   10.23642582342310
H         0.73795861748785    2.57659678701285   11.00225297759212

