51
CSD_code = YISQEZ | q = 0 | S = 0 | Stoichiometry = C20H25IN2NiS2 | MND = 4
I         6.15560824418905    5.69281331038207    9.87505981223835
Ni        6.37821742249644    8.08231310567877    9.60376124567221
S         5.60675984106150    8.84430520182682   11.40267999876564
S         8.19438534198688    7.90947435995660    8.44683091854985
N         3.94844265266366   11.00990602274823   11.50647096739951
N         9.00371726086907    9.69593864355936    6.60897489427693
C         6.39654328391915    9.96098207551172    9.09601917977649
C         5.53664894960515   10.88738502357233    9.69684898383582
C         5.42547753266953   12.18242184573672    9.19628117124110
H         4.74458976569256   12.86292321373684    9.68294499854415
C         6.19675670247570   12.56893060549465    8.11422558586420
H         6.11026461150729   13.57114927348802    7.72252179809967
C         7.10598555498489   11.68863276880634    7.55660753708981
H         7.75167653022446   11.97920335762473    6.74241051396226
C         7.22146238635939   10.38865460713776    8.04952792607241
C         4.86660708024383   10.42295752802117   10.89946978097794
C         3.32483931348648   10.45892015868352   12.66841493506617
H         3.97106814823592    9.68452299246643   13.12410455658939
C         2.00110290209563    9.80266143255188   12.25363467806695
H         1.38869871775854   10.55113588852290   11.74661831246372
H         2.20441492578640    8.99497472226656   11.54626551864337
C         1.26905181616970    9.26282809924825   13.47620381522885
H         1.87273725887957    8.48170764072268   13.94411582937974
H         0.32465813410464    8.81353923534969   13.16313576056043
C         1.01036073747678   10.37846934933312   14.48401985968975
H         0.35457588392719   11.12776866908879   14.03508278053999
H         0.50556521115529    9.97384837294800   15.36341268664956
C         2.32404111827625   11.03605357035239   14.89601987782255
H         2.95322868040132   10.30086531652193   15.40330532151754
H         2.13097404094201   11.85115019763480   15.59607625154291
C         3.06227629568055   11.57686687779642   13.67628410553352
H         2.46512842751337   12.34744820187258   13.18537857822059
H         4.01209956932596   12.02562980740273   13.97479087744127
C         8.22174959020566    9.45092400831036    7.56110953200374
C        10.02778882276511    8.84365987034907    6.10130482805644
H        10.68804151010001    8.52266151411232    6.92207769101547
C        10.83768776317636    9.64358517999508    5.07540878989777
H        11.26195844989920   10.52247137382981    5.56376657443971
H        10.15940528242810    9.98753689008794    4.29251365721887
C        11.94159085992705    8.78384914789834    4.47170384447285
H        12.63992503176996    8.48508097288056    5.25701740334693
H        12.49616166428847    9.36838536781456    3.73507715377644
C        11.35565429689661    7.53852477853309    3.81422901305957
H        12.15703368426665    6.91894101185120    3.40798820026567
H        10.70717664331153    7.83482375078762    2.98679631032239
C        10.54741083366879    6.73687810074088    4.83096631085967
H        10.10634712060629    5.86137735021208    4.35077895013477
H        11.20821195234702    6.38599423210047    5.62674678680179
C         9.44186578683458    7.59216369396917    5.43279602022517
H         8.88963077429134    7.01918070437570    6.18478391603100
H         8.73809559101528    7.90188057607736    4.65673596076644

