46
CSD_code = YISQUM | q = 1 | S = 0 | Stoichiometry = C19H20Cl2N4Re(1+) | MND = 6
Re        3.91914598360064    2.73248347375535   11.16383651838582
Cl        5.75571206705081    4.03234190867732   11.56803433571974
Cl        2.39433079868862    4.39384165800645   11.47190418480679
N         2.33288836710466    1.27197675071239   10.97676961737945
N         5.02380098063257    1.00431331424611   10.81856470596342
N         3.73915906815344    2.21352365446176   13.16221088222086
N         3.54525850069466    2.85949917994635    9.02787797908640
C         5.52983186474950    4.11566517996512    8.39898810965702
C         4.34640745033243   -0.13838751951635   10.61764848005753
C         4.97516854809299   -1.34077328607438   10.33485716102739
C         6.35647872583143   -1.38991361601580   10.25849155940716
C         7.05985711565754   -0.21385760774039   10.48247918225674
C         6.36564157605327    0.94465186032868   10.75595255068425
C         2.84069132189084   -0.08844308563222   10.72551055364176
C         2.61551774288007    1.52023100859039   13.41369549553169
C         2.33075218647514    1.02713487767819   14.67602206417234
C         3.21520795801485    1.26432919218733   15.71765125429703
C         4.36845618023824    1.98408506459345   15.45015258057535
C         4.59077574854318    2.43213168150648   14.16103740021214
C         1.63585259037596    1.36119777284507   12.27343754457454
C         2.39998577978924    2.22638708010752    8.71145827686116
C         1.97957517236611    2.06236043606652    7.40432433558752
C         2.75014135341563    2.58594734226447    6.37694941511396
C         3.91028735501970    3.25506473926090    6.70817516282010
C         4.28874568784691    3.37855982732666    8.04377662889876
C         1.52278560865842    1.75574442174137    9.84851377082669
H         6.02320604754606    4.49409084733758    7.50975506627455
H         6.21740702869228    3.47153581113382    8.94358727925535
H         5.28564745794873    4.95294962153788    9.05104970564791
H         4.53001675200149    3.69193592424155    5.94249939844370
H         2.44310834361865    2.47850952641755    5.34904835135627
H         1.05617619592586    1.54659244949679    7.19540497788134
H         0.96076636424278    2.63448260641560   10.18645825798825
H         0.80945030135907    0.99896998732925    9.50301947538549
H         2.41335587909545   -0.48848771295189    9.79932092880143
H         2.53723889850047   -0.76091053118802   11.53608735175865
H         4.37963480206570   -2.22643316763694   10.17844960808553
H         6.88492925978705    1.87434155440734   10.94240130695037
H         8.13626164541187   -0.19305396861320   10.44573986729040
H         6.86502104467319   -2.31349350617824   10.03630208138621
H         0.97605483638101    0.50266272368336   12.44122418302692
H         1.02354762565779    2.27039183216904   12.26454050779580
H         1.41830086918507    0.47660674314678   14.84309022169207
H         3.00355240961407    0.89921031566962   16.70960886090940
H         5.08478132197157    2.20163528156919   16.22470681314284
H         5.47758718416678    2.99746835272412   13.91068600716109

