62
CSD_code = YISQAT | q = 0 | S = 0 | Stoichiometry = C22H31CoO6P2 | MND = 6
O         1.52086976603031    3.83703400464384    6.72233657404379
Co       -0.86694615450442    7.49382582474579    8.21513893947697
P        -1.28040048719787    6.42334003951823   10.09527695208333
P        -1.69529444937968    9.53921300751812    8.60439572588621
O         0.64757656160553    9.60185193385034    4.64378265855402
O        -0.02710233623472    5.89586751472570    7.58417761487822
O        -0.45758185478037    8.29488873629681    6.55311991971184
O        -2.68850027624248    6.72671917573730    7.37618169284991
O         0.92624947589191    8.93217213583825    9.66433809063470
C         0.80787121781325    7.94704646048918    8.97343557633200
C        -2.08552125768125    7.23504916394916    5.11883557848283
C        -2.81946955081559    6.59887754627423    6.15727950551383
H        -3.63652597505954    5.94160375158908    5.80147240252508
C        -0.96846319263711    8.07417461364522    5.40415489942122
C        -0.36173135654555    8.75184086416226    4.28168382935803
C         1.77440941773810    6.95582581045686    8.60569768247058
C        -1.86572782444131    7.65884938603930    2.74728329887033
H        -2.18052154175117    7.50025598357200    1.72732778478555
C        -2.49479141621596    7.03420265322414    3.78058946899653
H        -3.33098256712154    6.37421468319455    3.59739389265947
C        -0.79585114683304    8.53427343124212    3.00275591745939
H        -0.32483514784159    9.03039251423710    2.16790490913616
C         1.37817517031825   10.23536573996756    3.62789028468292
H         1.84966141406919    9.50945381033084    2.95695881155853
H         2.15115539704430   10.81122018656523    4.13476532948626
H         0.74897324837878   10.91376842853207    3.03978340606137
C        -0.69090229652089    4.69310097158114   10.17111423663156
H         0.39789352360503    4.68323184794210   10.19631832565610
H        -1.01972381675235    4.17273742365454    9.27406954469681
H        -1.08687841779178    4.20200294411580   11.06033968885923
C        -3.06782403048544    6.18157276595937   10.42404899631019
H        -3.50197034717430    5.67713865308607    9.56449241522000
H        -3.55089995608754    7.14971516095812   10.53722440758426
H        -3.21589639336042    5.58620550863810   11.32437094427011
C         1.22941242629385    5.89605032384094    7.84677421223234
C         2.10956309309693    4.84750308056852    7.43432742715862
C         3.95532889748329    5.99052320027539    8.51858786745175
H         5.00881182531795    5.99963549927683    8.75419721111982
C         3.44027547771076    4.91919186157842    7.77171445907082
H         4.12231449758383    4.14139184618824    7.46296727191350
C        -0.69722959589838    7.03492888030205   11.72485800605777
H        -0.99185934877909    6.33824754798182   12.50882579818287
H        -1.12196148292275    8.01408362547328   11.92749975011792
H         0.38651366535590    7.12730350229822   11.70588853030035
C         3.13842298472895    7.00409414592194    8.93801236657403
H         3.51191489473327    7.83840249627133    9.51164995331785
C         2.34136281902406    2.81415677803220    6.22480860816866
H         3.11357500534427    3.20539416093683    5.55329802902091
H         1.68229643615861    2.15085209585426    5.66629333249653
H         2.82023899534265    2.24969285476520    7.03352875398604
C        -3.28119736574927    9.85828482102514    7.73432659138296
H        -4.03781490905551    9.16145565067946    8.08943183257196
H        -3.13503704367909    9.69498940532994    6.66801682618209
H        -3.61439278710938   10.88181713458436    7.90440831734200
C        -0.67001700926175   10.90288657394724    7.95093845526552
H        -1.23131503977146   11.83672287301132    7.98905642202190
H        -0.37783583835695   10.67563994258359    6.92839957871188
H         0.22712746422771   10.98018239978966    8.55953149982654
C        -2.07967396425742   10.21005495371494   10.27279642074256
H        -1.16224236073292   10.20664871976608   10.85629598009441
H        -2.82812993045988    9.59411978388638   10.76682891286293
H        -2.45124520538522   11.23031316576647   10.18799828071469

