47
CSD_code = YISQAV | q = 0 | S = 0 | Stoichiometry = C18H23IN2NiS2 | MND = 4
C         2.03190563587161    9.85265424589777    5.36585182484432
C         1.85025224839695    9.24221771951159    4.10330214088666
C         1.44199062546917   10.00057212645233    3.00328626520792
H         1.17254765948865    9.51547021544073    2.07649945321243
C         1.28240153692627   11.36879238324106    3.12397522787023
H         0.91207979721169   11.94143083172283    2.28665232650584
C         1.58477289560024   12.00737702012831    4.31259660037898
H         1.42633079771555   13.07255872666146    4.39717592540705
C         1.99296427451045   11.26499455958946    5.42344966537012
C         1.95349381025401    7.79205991167856    4.11160977262098
C         2.92330431553617    7.45645085509181    1.88595772602326
H         3.04399886456952    8.53825571405739    1.88482749493602
H         2.42029379026853    7.14810261971233    0.96320996461802
C         4.30702727578925    6.80041630906593    1.97344910303191
H         4.81253622819040    7.16662538622778    2.86995683158321
H         4.89495423878394    7.10061846954280    1.10490151711075
C         4.18738413500256    5.28167051945967    2.04403554704435
H         3.75375841246789    4.90501778735157    1.11413171860343
H         5.17590529769490    4.83557261159701    2.15898277599392
C         3.29354388866433    4.89581600598444    3.21854363861137
H         3.13591716016651    3.81795675163735    3.24788579712656
H         3.75795003861951    5.19691479764400    4.15890554190865
C         1.94733369159605    5.60278462222098    3.07740555443234
H         1.46302958677076    5.29240915439638    2.14500892840247
H         1.29234762343539    5.35841045777200    3.91427058039335
C         2.23582848021343   11.82419792228143    6.74328441206378
C         3.38134220494153   13.88891472729328    6.08811139463902
H         2.97527871135807   14.90421752825504    6.02648167184669
H         3.39615286337659   13.44715812476181    5.09334634772899
C         4.81278531909910   13.92888769992061    6.63774625023796
H         5.21720747733407   12.91408192390888    6.63651604253609
H         5.42757567983293   14.54081169888109    5.97613565092402
C         4.83606860188095   14.48175786610653    8.05892176706803
H         4.50589603576626   15.52366483195053    8.05179979617662
H         5.85284939736624   14.45392203108775    8.45232300118039
C         3.90518403141031   13.65599729228426    8.94147662708210
H         4.27260013300704   12.63156816017020    9.01996965619663
H         3.85088519569581   14.07481162487295    9.94603545591979
C         2.50980590636901   13.64003247101436    8.32124255461347
H         1.82570355505003   13.04091928602303    8.92303202202999
H         2.12272770753041   14.66284730637992    8.25600713348222
N         2.11389116780833    7.04169113792914    3.01469941178942
N         2.54034987368854   13.10737855343572    6.97311539018102
S         1.81748644840775    7.07851647757479    5.63490554359413
S         2.06866218024121   10.73289826920794    8.01955006854785
Ni        2.07484330833063    8.81821295349396    6.94696591597742
I         2.46515189227921    7.49396231108533    8.93576196406107

