68
CSD_code = YISSUP | q = 1 | S = 0 | Stoichiometry = C26H38N2RhS(1+) | MND = 6
Rh        4.12980384345019    2.90495260662501   11.74544441380023
S         2.38841697366915    2.23527744134199   10.11580684492847
N         5.20303194961841    3.11620868878111    9.02070584987372
N         6.63408481457624    2.04646578531403   10.22393880218396
C         5.46675106751262    2.72279947937812   10.28418140788887
C         6.17018432276648    2.65799145928934    8.16587144087175
H         6.14875036652355    2.84894101563126    7.11316868267941
C         7.07054959712044    1.99062704099865    8.92262841758313
H         7.96770480500581    1.47777811254872    8.64627897197860
C         4.05772325280603    3.91441028349867    8.66663914116245
H         4.25739295748700    4.42689038798573    7.72212764945347
H         3.90299780868251    4.66175134106324    9.45572949739264
C         2.79828235420144    3.06453099569596    8.53523546444284
H         2.92324934965400    2.30372619911405    7.76949149933020
H         1.95001019264058    3.69937386457654    8.28220197448560
C         2.20841783724347    0.44232476061239    9.61395541414452
C         5.04477011378270    4.70919362000894   12.46266977139834
H         5.71373507156807    5.11297889844056   11.70085538576865
C         5.51811134673423    3.64230492751550   13.22350183557274
H         6.51503995072570    3.27797013269210   12.98631907143577
C         5.07918499360135    3.34543956610173   14.64033728336482
H         4.84072085855251    4.28265549628532   15.14262840615753
H         5.91673044056991    2.89673436337651   15.17601806682528
C         3.88436592982502    2.37394648105822   14.70551549773537
H         4.26376849097947    1.35055451474422   14.74646126082650
H         3.31863810852894    2.54258156961514   15.62678515450425
C         2.94491128427644    2.48621646557866   13.52873346363628
H         2.39050460081844    1.57084966121797   13.31411533365108
C         2.45968584265179    3.66173363000362   13.01482678702163
H         1.57201287392280    3.61841233118762   12.38636299243104
C         2.76956322075339    5.02555230775550   13.58078016488588
H         2.94524491016965    4.93855398375268   14.65217679991385
H         1.89907537642521    5.66914474575528   13.44690267799000
C         3.97542009791053    5.68423276003223   12.88652960767085
H         3.62720826655562    6.21857727899230   11.99838441164531
H         4.42547571877819    6.42998603602245   13.54913355225352
C         7.44416495983653    1.62427034441069   11.31992976727941
C         7.01241483523050    0.62487049710087   12.19501009469361
C         7.84997668720071    0.23668534132975   13.22856254683435
H         7.52152242560166   -0.53845674456602   13.90468866358960
C         9.09746211347870    0.81601632654651   13.41439456172798
C         9.48884193283438    1.82739449466203   12.54910242994156
H        10.44584284586641    2.30592975509488   12.69305953077879
C         8.68137945131586    2.25038423696333   11.50357655706735
C         5.66312365367877   -0.00492786653228   12.04523296324486
H         4.88314411622658    0.78144534079882   12.05982934470270
H         5.47469624418047   -0.69817751758392   12.86007841839824
H         5.59617512757528   -0.55368903815498   11.10655876658883
C        10.00008980888432    0.35947437004835   14.51426929285753
H        10.60543482007305    1.18143326173697   14.88771620111847
H        10.67595394286811   -0.40899260251761   14.13884898846356
H         9.43112091797691   -0.06686450326587   15.33624724367383
C         9.14233558998620    3.37847731777373   10.62920609873219
H         9.65690023396745    3.00141422103620    9.74598286470401
H         9.84399815921168    4.00402757098793   11.17453059434854
H         8.31107611842938    3.99945001949907   10.30069141633427
C         0.98379281940304    0.34257906908879    8.71698720136394
H         1.10999254887546    0.89917155220798    7.79133032074966
H         0.10354735663088    0.72290788806337    9.22952271743982
H         0.80635444908337   -0.69956493450265    8.45978861127789
C         1.96587623194838   -0.30024296576726   10.92200159388339
H         1.76854853982353   -1.35035442664186   10.71926144876827
H         1.10284152013726    0.11389228258331   11.43940874420370
H         2.83363183820641   -0.23400503277210   11.57448759290333
C         3.46386572415502   -0.06421618766254    8.92106687390079
H         4.35554868260203    0.23482076160431    9.46730117200982
H         3.54368012726753    0.29849779320495    7.89852901004034
H         3.43644718733953   -1.15111885726238    8.87775537174304

