34
CSD_code = YISTUQ | q = 0 | S = 0 | Stoichiometry = C12H18CoI2N | MND = 8
Co        8.33876597221666   10.53118469352680   10.40043772269424
I         7.41711957730488    8.41430506228119    9.41015653621617
I        10.35946873807676   10.66624961400109    8.93217629748926
N         9.57490712508664    9.42819472904346   12.24473831627149
C         6.55819905946042   11.01585689088235   11.36429294550084
H         5.75392126687965   10.36848801499539   11.67683894623145
C         6.64636896822531   11.68530598070284   10.11961407496400
H         5.91874544565114   11.64070952296688    9.32335287462040
C         7.78723768153221   12.52830465773553   10.15698932499656
H         8.08283407415911   13.22633178064093    9.38912896356877
C         8.41433182138657   12.35629394495536   11.40832604389410
H         9.26403526284364   12.91780638334696   11.76423770292159
C         7.65606845147231   11.41715982786870   12.15766855306829
C         7.99587482478463   10.86727047605873   13.50706679035023
H         7.09622814515230   10.80004021543352   14.12338072006873
H         8.70517487192784   11.52498339287227   14.01311284974284
C         8.58450224404928    9.45993562998370   13.33444773713104
H         9.00905769061484    9.11670986622694   14.28489208143140
H         7.77977243116864    8.77190298087769   13.05876045766152
C         9.94920833523052    8.04731472415347   11.90450171894163
H        10.53558374188466    8.08733800360208   10.98189696901288
H         9.04272551284854    7.47403012238221   11.70423896253649
C        10.77035225375792    7.33103156204771   12.97738489948513
H        10.17819710842600    7.20071980666621   13.88582932893018
H        11.02246542987689    6.33797334387408   12.60423929841851
C        12.03592135842552    8.12171628060363   13.28672900714882
H        12.59600162531818    7.64564465848926   14.09335296636313
H        12.67347528916864    8.14668456772859   12.40050655208671
C        11.65227167711391    9.54500137158700   13.67222777003110
H        12.54499476462165   10.15846290495262   13.80347448761347
H        11.11332429596182    9.54233375854131   14.62266503069736
C        10.80068559317843   10.17445607236992   12.56769452771537
H        10.54091972026630   11.19620301572678   12.84606233120201
H        11.40495964192817   10.21745614287461   11.65827721099425

