62
CSD_code = YISTEA | q = 1 | S = 0 | Stoichiometry = C24H34N2RhS(1+) | MND = 6
C         4.58195893312523    4.20904225940745   10.84679168578013
C         2.79538428236923    5.48115366329612   10.46596206797832
H         2.18655800741270    6.35933367201807   10.51259586395758
C         2.55149963262132    4.26910351017234    9.91764661327509
H         1.70012005613123    3.90257803043352    9.38297414520599
N         3.66391172682673    3.50638974593354   10.15039711133816
N         4.04462056178039    5.42861460096719   11.03254890878164
C         3.81670197026292    2.10139457285971    9.87694855568587
H         4.86397470681919    1.91842628407049    9.59274099423442
H         3.15972842391451    1.81397697952180    9.05247279127714
C         3.47892072575241    1.29121879542288   11.12625521659722
H         3.66595886338337    0.23314175685365   10.95708751839999
H         2.43591495730505    1.44021023281234   11.40827168878204
C         4.99379430935863    0.20744082561744   13.23827893606108
H         5.38648108684534   -0.41125055664723   12.43119390201233
H         5.78883634105685    0.42475172593232   13.95116227326261
C         3.82140745006416   -0.45517210670151   13.93371974534243
H         3.42481272289323    0.19395248494874   14.71032829692392
H         4.14899420711370   -1.38378430491359   14.39509916330945
H         3.02290853782660   -0.68638481290173   13.23256876055198
C         7.48525526228712    4.94435640486062   11.09051909363981
H         6.88085554161005    5.83673313551652   10.94391493337440
C         7.54744315309162    4.03140357687289   10.04459457522413
H         6.94984490189035    4.24851118739834    9.15870672583757
C         8.73167079499860    3.12345340428786    9.79840398357520
H         9.63442203917827    3.62347145849571   10.14810404834117
H         8.84361116015861    2.96982322976209    8.72440669385480
C         8.57642876597441    1.75054437278914   10.47647157419894
H         9.56182161264534    1.32209635949103   10.68309362431754
H         8.07185018384016    1.06851741834534    9.78698182994614
C         7.78226452661750    1.79365322718163   11.75998935404006
H         7.32397638680926    0.83640580850293   12.00526250638822
C         7.94905585855782    2.71222996950759   12.77238368616481
H         7.55714696044986    2.45923217052875   13.75947098741710
C         9.01758386588365    3.78006712286725   12.76956613939843
H         9.34006533992678    3.95941944528982   13.79588000232577
H         9.88358593372374    3.41290752075599   12.21913663775580
C         8.52093343562856    5.11061593010868   12.17261609657760
H         8.07778237794627    5.71900189086187   12.96471756092604
H         9.36615265710685    5.67687238682846   11.77020907361521
C         4.64516658674171    6.54330149266141   11.68308983174851
C         4.98395950743776    6.46135411900491   13.03595611224254
C         5.53914196202177    7.57538449282323   13.64724648496039
H         5.79949749618823    7.52104568238397   14.69381594839343
C         5.76124288765189    8.75529184034388   12.95178451913385
C         5.43058754409352    8.80104326180365   11.60407017683243
H         5.61106835652845    9.70754609428181   11.04611218444033
C         4.87563834860591    7.71153955134234   10.95049591644658
C         4.78434771972721    5.19684880879672   13.81190658340738
H         4.91316123704491    5.37901395053486   14.87471246472411
H         5.52991758579758    4.44412104034222   13.49913850711760
H         3.79206585488481    4.77998828533180   13.64576454009698
C         4.56598750285299    7.80449858330621    9.48604968929592
H         4.67308583825309    6.84264811502088    8.98847864302898
H         5.23607963829038    8.51615204122331    9.01078427541449
H         3.54758494530102    8.15884634922568    9.32899129410189
C         6.33937696994378    9.95641284053494   13.62773764604984
H         7.14679859267076   10.37967515678250   13.03391499409235
H         6.71902687162260    9.70745797440855   14.61465068908496
H         5.57413638335609   10.72401723059467   13.73815554098081
S         4.50628734260483    1.83239690022047   12.55022798570033
Rh        6.20920256717829    3.28506280972378   11.57524260702260

