73
CSD_code = YISVOM | q = 0 | S = 0 | Stoichiometry = C29H36Cl2N4OZn | MND = 4
C        -0.15536437878591    7.32081489972868   14.34939475945490
H        -1.23615408498183    7.25226580365088   14.16075374092823
C         0.10684208462756    7.42349937031567   15.84646038508312
C         0.16953156316924    6.27745011872314   16.64336985058961
C         0.44473032990230    6.39790153317571   17.99993241315494
H         0.52080024103717    5.50058242435149   18.59957223113204
C         0.63277527727574    7.63721133299738   18.57590666930846
H         0.86358854077197    7.71009918166057   19.62690161186965
C         0.52028838868252    8.77743602192067   17.80219641752193
H         0.65365163985408    9.75180462527982   18.24374186098402
C         0.25958685981247    8.66500893808244   16.45060031172764
H         0.18060490855793    9.56178263832290   15.85522481906329
C        -0.15760104792872    5.17466937493962   13.03876123446011
H        -1.19369759411281    5.24714130277821   12.77647847274859
C         1.17353674617378    2.94622471821643   12.13123903178759
H         0.36585520040126    2.27130192725609   11.85852136298437
C         2.07741855878036    3.38795504656051   10.95788241437115
H         2.29907207491011    2.54335772784479   10.30717623678179
H         1.58670951281658    4.15308598002614   10.35664555328802
C         3.34312893393796    3.92522859329509   11.65522481288080
H         3.52805197842285    4.97693313831148   11.44141152580139
H         4.23441217172851    3.36951133171733   11.36960766676085
C         3.06188790137225    3.72884436174032   13.16893970350173
C         1.96185223512216    4.70425187844892   13.42857385878312
C         0.79109037827362    4.22410312727305   12.80176695405199
C         2.21341363500926    2.41163532675404   13.15785781789796
C         2.96772496107052    1.17219397438534   12.68949497435736
H         3.50656367743929    1.33104948132725   11.76282785664063
H         2.26564796881163    0.35381764200695   12.53971518350213
H         3.68328287509380    0.86728594592490   13.44979474399866
C         1.58506872756618    2.08964722172341   14.51378327732088
H         1.02776423159006    2.93517341369841   14.90764710340154
H         2.35920803037459    1.82144644769306   15.22912962055720
H         0.90456402774381    1.24563541076056   14.41536085729761
C         4.27888968504365    3.80882315466252   14.06140977245319
H         4.98400683146783    3.01722784841239   13.81897251060744
H         3.99538760439262    3.72662829261281   15.10821515684893
H         4.77271966443664    4.76755009076604   13.91620699296583
C        -0.38889943074405    9.38325783774009   12.91684007123312
H        -1.43050814905093    9.22422058200287   12.72249365234529
C         0.69406580232623   11.68828524518146   11.88733757218108
H        -0.02283946937619   11.98531127386689   11.12607462493417
C         0.82263102916668   12.66724609731946   13.07626108076229
H         0.84408129820696   13.69711095515515   12.72405638178807
H        -0.02263640155245   12.56601764379238   13.75759033909473
C         2.15412797740476   12.25724088127410   13.73691587792794
H         2.02059415533765   11.91682081929363   14.76369876113926
H         2.87022263039080   13.07695364458142   13.75147340081292
C         2.69419457802434   11.10291251710750   12.84575548032923
C         1.71982379312052   10.00370225093124   13.12074528810867
C         0.48243637931408   10.36297904375676   12.53996634114158
C         2.17484220752600   11.53267398609785   11.43276426551337
C         2.79265905219872   12.81725344014314   10.89129718305731
H         2.76204065329354   13.63663768471007   11.60061867702830
H         2.26116596572479   13.12476755182976    9.99247463533619
H         3.83136831475139   12.63885382477848   10.62378238327114
C         2.35979865419725   10.44625688564659   10.37437163262476
H         2.00241368021368    9.47794005986399   10.71369450352269
H         3.41349817700994   10.34083032037540   10.12962178397080
H         1.82216476189157   10.71515917381856    9.46673593536128
C         4.16396800162298   10.80215938033309   13.02063300814128
H         4.76270317200324   11.68221924144009   12.79682768871905
H         4.46712887947305    9.98952365734493   12.36595530350735
H         4.35944810456737   10.49924059880448   14.04862243571552
Cl        3.61496527822652    7.61347775129590   16.48121147629753
Cl        4.29156521784422    7.31941558517085   12.53813427535586
N         1.74741579075139    5.86080513851524   14.00958811279812
N         0.44881435679578    6.14815975550371   13.77503343426974
N         1.61694888614668    8.88446112195069   13.79798455054774
N         0.32719870742247    8.49748109363841   13.66738561163056
O        -0.06765899492787    5.05421229339436   16.08895622858350
Zn        3.05003895062703    7.44601115615102   14.37651346284159
H         0.08197765018652    4.37562185983797   16.75948477321906

