29
CSD_code = YISWAY | q = 0 | S = 0 | Stoichiometry = C14H9FFeO4 | MND = 8
Fe        4.72485924547998    2.09469840085658    1.10612355235337
F        -1.66408411937073    1.09858051170472   -3.98644901738092
O         6.37068774597023    2.51387019637252   -1.23233213914832
O         4.38277778037658    4.81183406142424    0.66461992623515
O         3.02848452666867    3.47623291175726   -0.56076749291643
O         3.15020431168584    1.36306560980845    0.08475424338051
C         5.74128428592472    2.30592988617364   -0.29420959687136
C         4.08638813249019    3.68644872330146    0.41660672842520
C         4.87112403695901    0.53582663482740    2.77376871845778
C         4.07419309252858    1.64343775862766    3.19629635742498
C         4.90643085201708    2.77821611170752    3.26877785975460
C         6.18154170053826    2.40569903304052    2.80082196319133
C         6.16336777213375    1.00331533524961    2.52959274668137
C         2.60002158795838    2.22427094095032   -0.61595659477085
C         1.47492209582800    1.94519058609500   -1.50368311361069
C         0.99861274144152    0.63457454019234   -1.60740025878354
C        -0.05934324465998    0.34551743485526   -2.44290535211187
C        -0.63359325177051    1.37635415033583   -3.17158253441524
C        -0.17926580678721    2.68347054741286   -3.08640383192958
C         0.87968171438963    2.96704870860860   -2.24881363460764
H         4.54109378213325   -0.48782874187845    2.72449068102641
H         3.06808225517253    1.57250689633325    3.57747358049668
H         4.62850678404380    3.75105559995729    3.63500190979429
H         7.05932054850508    3.03049032703627    2.80124224724480
H         7.01951881652380    0.40675016081285    2.26374247650611
H         1.47364774036471   -0.13965648558731   -1.02586007999745
H        -0.44454985900039   -0.65690980277990   -2.54077951356330
H        -0.65565149331349    3.45339870375255   -3.67214469290380
H         1.25743622576789    3.97291125905201   -2.16012513796343

