47
CSD_code = YITFAI | q = 0 | S = 0 | Stoichiometry = C12H26Br2N2NiO4 | MND = 6
Ni        0.00000000021846   -0.00000000016943    0.00000000012884
Br       -1.12127888781576   -1.66925060947023   -1.26346424543399
O         3.31471520157077   -0.73170385866111   -1.55947461120560
O         1.01221114032704    1.10657968941477   -1.99675666203012
N        -1.49558830117918    1.24418983726119   -0.50891463982429
C        -1.29154673829136    1.69856125163920   -1.88993569129050
C         0.13158140716700    2.20996884533758   -2.10670000005263
C         2.37674563062564    1.48916691674837   -2.08290209316295
C         3.26660353067862    0.31110579874817   -2.50147449619165
C         2.32186447463551   -1.73102141613260   -1.73797894723622
C        -1.96529550375811    2.31453360019809    0.37566154980697
H        -2.26339664652327    0.56138412244211   -0.50875480207137
H        -1.44581276839471    0.85463732964625   -2.56856171025461
H        -2.00295177049645    2.49388013177468   -2.14385409522770
H         0.21706443116847    2.65290869266135   -3.10965535138894
H         0.38798089051274    2.97621870632306   -1.36227706848426
H         2.48584633545127    2.27463253235083   -2.84280885539221
H         2.71432561488093    1.88500436560222   -1.11611456311476
H         2.94099669351656   -0.06898351716493   -3.47734904427352
H         4.28964444162714    0.68878954382251   -2.59080411427704
H         1.43036785023356   -1.29875437767703   -2.19943133107010
H         2.70551165826800   -2.52673806796838   -2.39203033146287
H        -1.19791698856413    3.08051651388669    0.50130452207383
H        -2.86283521507161    2.77479565014230   -0.05934029856958
Br        1.12127888618471    1.66925061330436    1.26346424383034
O        -1.01221114035410   -1.10657968953487    1.99675666210240
N         1.49558830144040   -1.24418983770680    0.50891463994887
C         1.96529550404935   -2.31453360050747   -0.37566154979150
C        -2.32186447441393    1.73102141606163    1.73797894731168
C        -0.13158140727289   -2.20996884553913    2.10670000004013
C        -2.37674563068316   -1.48916691676427    2.08290209324510
C         1.29154673825440   -1.69856125200289    1.88993569137679
H         2.26339664678317   -0.56138412291082    0.50875480227260
H         1.19791698888087   -3.08051651422511   -0.50130452211110
H         2.86283521537592   -2.77479565042417    0.05934029857273
O        -3.31471520145860    0.73170385870402    1.55947461132012
H        -1.43036785004927    1.29875437758326    2.19943133118729
H        -2.70551165798537    2.52673806796789    2.39203033144652
H        -0.21706443133124   -2.65290869287079    3.10965535134696
H        -0.38798089067860   -2.97621870646094    1.36227706841693
C        -3.26660353064953   -0.31110579871714    2.50147449630931
H        -2.48584633555736   -2.27463253237363    2.84280885545948
H        -2.71432561498058   -1.88500436557659    1.11611456320572
H         1.44581276838144   -0.85463733004226    2.56856171037718
H         2.00295177035727   -2.49388013217542    2.14385409534185
H        -2.94099669345800    0.06898351716646    3.47734904438009
H        -4.28964444162199   -0.68878954371109    2.59080411441585

