67
CSD_code = YITHER | q = 1 | S = 0 | Stoichiometry = C28H36AuNP(1+) | MND = 2
Au       -0.52257953312856   11.77146490684713   -0.11080731036548
P         1.00571957420593   13.44994920415992   -0.19659773503314
N        -1.93411793804055   10.09689883591000   -0.07656228451803
H        -1.90026386879978    9.75237655990012    0.88390354404703
H        -2.88130628411284   10.41100636214338   -0.27303054354390
C        -1.56096184664372    9.05600460074372   -1.00333532642874
C        -0.49761355379498    8.22486217559464   -0.69775302037173
H         0.01660431816436    8.35075272278181    0.24496688500474
C        -0.09118459288061    7.22754750004631   -1.58357341921021
C        -0.77287059923857    7.10397217789377   -2.79619406116404
H        -0.47153457523775    6.35244372392578   -3.50692974179263
C        -1.82673321888618    7.94156488840629   -3.10112909161811
H        -2.34580488903901    7.83423285811073   -4.04074048121435
C        -2.23220495304853    8.92024044672735   -2.20738942610948
H        -3.06068613802241    9.57096314930106   -2.44595091792213
C         1.02244050503910    6.36492235587192   -1.20536553548098
H         1.56466721760018    6.68724196997853   -0.32471294769246
C         1.39163235783055    5.24677348947900   -1.81785419094241
H         0.88155058701748    4.85919783483295   -2.68250209596471
H         2.22389757598693    4.66490616313846   -1.46231579871882
C         1.90550137330489   13.72920020865302    1.36302426782486
C         1.62652239498780   12.99432317955274    2.52141932836232
C         2.35288221646534   13.25573483369769    3.68154561135678
H         2.12831033653228   12.68379042907727    4.56992701642537
C         3.34074872973675   14.22041110214671    3.71182669550182
H         3.88669616362519   14.40652001823579    4.62327463236598
C         3.62945427144883   14.93719626785840    2.56237946176427
H         4.40642296811862   15.68596455108541    2.56641772928536
C         2.91988380790040   14.68928431658965    1.40441088976261
H         3.16227950229170   15.24843339283183    0.51608668212991
C         0.61810007425060   11.91449331259914    2.63149921737254
C        -0.70297247361058   12.19674746334711    2.97371469548163
H        -1.01695287355433   13.22380747342534    3.08466069562291
C        -1.59996130450697   11.16844973961298    3.20780613831471
H        -2.61752041021440   11.39862753016643    3.48587890934242
C        -1.18705318273184    9.84796431214062    3.11309774860026
H        -1.87934171237327    9.04639611332611    3.32692872489513
C         0.13062370616001    9.55950961672575    2.79014664420820
H         0.46405936031193    8.53290456164201    2.75159584732602
C         1.02813700828286   10.58495470559984    2.55122502629696
H         2.06068346050099   10.36263319739882    2.32371732091107
C         2.31466923943522   12.97325006878160   -1.47667984134152
C         3.20686454861334   11.96522331544400   -0.74777619612420
H         2.59649632382997   11.20682316017663   -0.25279959263024
H         3.83011279205844   12.45206418955718   -0.00017658065789
H         3.85826606372690   11.46291349058013   -1.45973218074965
C         1.59272404631181   12.25577646132658   -2.62096457188841
H         0.89618655465041   12.91295850443408   -3.13486090519579
H         1.04486778146296   11.38540690404933   -2.25786794320835
H         2.32406330372753   11.90956436600228   -3.34860943119468
C         3.15143319732051   14.10586673714758   -2.06392679605268
H         3.86643080644266   13.67924240641540   -2.76607609116553
H         3.72291880240493   14.63527726135871   -1.30760996609935
H         2.53457800851634   14.81272043659641   -2.61364319390145
C         0.10156260944242   15.06834912815976   -0.53577873955648
C         0.94122577381456   16.34161682181885   -0.47937588551322
H         1.77881087227345   16.31733267469503   -1.16997259448383
H         1.30816512918219   16.52817771347599    0.52687861894001
H         0.30878250667782   17.18273072599343   -0.75973311871820
C        -0.57970953729337   14.94562820498899   -1.89773302032992
H        -1.09662571722060   13.98902544389507   -1.99029574363306
H         0.13815827106682   15.03911971422622   -2.70923898167938
H        -1.31572431632860   15.73897315726537   -2.01306346675018
C        -0.95804795189554   15.13359844535613    0.56835803446672
H        -1.55847506565107   16.03339015403948    0.45247878462971
H        -0.48808950649506   15.16538653639686    1.55101024751400
H        -1.62399810430291   14.27071572724196    0.52587936952982

