39
CSD_code = YITJEQ | q = -1 | S = 0 | Stoichiometry = C12H16N2O8V(1-) | MND = 6
V        -1.89914827045375    3.49166587586998    7.29593243228811
O        -2.98951038911603    2.17221162851842    7.22160499803812
O        -4.89159184472362    1.18716364356951    7.83912158237823
O        -0.62499615429363    2.67888268606250    8.60853699060507
O        -0.17155630885974    2.46971810221485   10.77209499073112
O        -1.34369818057732    5.10544399167301    7.44730454438591
O        -1.65591216828775    7.29448172735556    7.16330267810686
O        -0.85619465338805    3.03364718019438    5.64968112514741
O        -0.91546893262589    3.04423964207885    3.43001513125095
N        -3.00349443003653    3.81114595506354    9.19800303834640
N        -3.14560121692321    4.46414918024267    5.73258931960272
C        -3.90630901383004    1.87102513140891    8.04628801075460
C        -3.63563337130036    2.51277527845605    9.42741646021915
H        -4.55365278303969    2.57745585270105   10.02539143327583
H        -2.93326927201005    1.84070609274294    9.93216168651097
C        -0.78522837430280    2.94963572399432    9.82929993957890
C        -1.89208094794138    4.00883754151538   10.12585887564955
H        -2.21777474617958    3.93738717546142   11.17564710190452
H        -1.44815737926900    4.99448516551090    9.95123647629954
C        -1.75218053901532    6.13060619585396    6.82011067208627
C        -2.44381918251987    5.72522480062526    5.49737656336769
H        -3.09960121778645    6.52356543759632    5.12710422155949
H        -1.63395544204376    5.57148151264498    4.77609084406645
C        -1.42622308971811    3.17208222657787    4.53389379710803
C        -2.93871515864306    3.54799401534368    4.61314847018345
H        -3.27440697458880    3.98492137494606    3.65939193829944
H        -3.49020931783300    2.62071012105896    4.80041929028636
C        -3.95878002222499    4.90569887852533    9.36271255702916
H        -3.41673659911513    5.84491607096627    9.21438671895769
H        -4.32579190171492    4.89310952773817   10.40520735528556
C        -5.17111424825331    4.87644471508822    8.42671624304776
H        -5.98440659918995    5.38406222065321    8.95305238847209
H        -5.49183273666589    3.84777356674474    8.25591594985473
C        -4.97898631022243    5.58523510965725    7.07876177234886
H        -5.93486900923127    6.04224158642547    6.80739650257455
H        -4.25653148951096    6.39484823476851    7.19159337716419
C        -4.58105850648253    4.67783158989783    5.91051884125830
H        -5.04841117972172    3.69741919910723    6.04586806413131
H        -4.98559203836001    5.11497604114632    4.97944761784461

