96
CSD_code = YITSOJ | q = 1 | S = 0 | Stoichiometry = C47H43P3RhS2(1+) | MND = 5
Rh        4.46015702886472    3.00065514776061    2.40155559376162
P         2.49123156399434    3.78517454626131    1.52136135854953
P         3.35417392507762    2.85513768565588    4.42369015114107
P         3.69149110039666    0.92030210053506    1.91469838261626
S         6.48240953554609    2.99226128875695    3.43470965856238
S         5.56705963250061    3.81851083270217    0.57384499940214
C        -0.30948843716999    1.15912922109305    3.23092217724907
C         1.10391471286253    1.71806142513496    2.99165355035891
C         0.94649459213227    3.01178132584493    2.17655012009885
C         1.73061737573736    1.97477417951765    4.36846941415780
C         1.88708628394905    0.64754421346854    2.21738983613995
C         2.26799688718887    5.54955649229581    1.89630484605605
C         1.05195127407418    6.17895714844744    1.64440657080295
C         0.90737576670178    7.52478967110559    1.92369982254625
C         1.97065396110914    8.24798364981992    2.44256167004536
C         3.18759973744401    7.62880286613111    2.67382378829726
C         3.33691755778331    6.28200770065169    2.39962073035694
C         2.29374300608916    3.76311251543868   -0.28435662829295
C         2.86143839235268    4.80978238574990   -1.00943334302756
C         2.81660499938043    4.80305306031837   -2.39053380498191
C         2.21523831310826    3.75059225979384   -3.06194465525950
C         1.65866607039133    2.70311253344857   -2.34710299754921
C         1.70252042997395    2.70342070711515   -0.96509342023184
C         4.04408312288693    2.09035301902331    5.92660070825287
C         3.39899010331224    2.33155755708966    7.13929396190962
C         3.85873690251410    1.73345911278289    8.29609011207751
C         4.96126445749252    0.89281985894274    8.25420596979776
C         5.60446732329014    0.65459718092694    7.05233409768081
C         5.14851685676975    1.25008890577807    5.88853554621858
C         3.01432780156208    4.53227273661155    5.04892500608090
C         1.77538039949407    5.15852688456579    5.09007629160771
C         1.67333862487911    6.45777997797173    5.55722056696615
C         2.80020558173356    7.13925722624287    5.98230388643508
C         4.04013951990306    6.51932667990673    5.94443342709660
C         4.14776870185682    5.22589139069633    5.47483988808164
C         4.58494710577197   -0.33105807202384    2.88404603912769
C         5.91537706704615   -0.50968163903624    2.50140155156135
C         6.72243256886736   -1.39940676053161    3.18061636557874
C         6.20949059231792   -2.11647003225459    4.25209573966015
C         4.89276788164895   -1.93770204995061    4.63951077932873
C         4.07943919447427   -1.04338282803658    3.96387256779882
C         3.85060542194881    0.21867311852976    0.24033564317130
C         4.29771353537426    0.94407541714197   -0.85342586411855
C         4.35707389656733    0.34639383620003   -2.10122254327594
C         3.97404547974864   -0.97403622415636   -2.25817524833116
C         3.53583389338191   -1.70502960516352   -1.16344139025554
C         3.47323417580342   -1.11539744031414    0.08359932330257
C         7.67083943746004    3.38463373034183    2.22989676482554
C         7.26187698121708    3.74622309368375    0.94542486505502
C         8.21166338450026    4.06204024785012   -0.02638544154993
C         9.54901249486746    4.02142212731669    0.29509742846889
C         9.95798116055752    3.66268132259343    1.57984204355328
C         9.02947786760457    3.34306495627377    2.54383308926686
H        -0.94217548283542    1.90309462442211    3.70986034599003
H        -0.27540476499865    0.28206072311964    3.87341621287665
H        -0.77747953960191    0.87271844396356    2.29164075914387
H         0.28565769372095    2.82179805697409    1.32530538599817
H         0.46492278605576    3.76629462514837    2.80495170541815
H         1.02918106696962    2.53014367362227    4.99833113050282
H         1.90458092396249    1.01128643897316    4.85877980671045
H         1.78658170122912   -0.31169187554206    2.73348272516611
H         1.43445541505827    0.52743017725796    1.22833271937719
H         0.22966737991835    5.61893629666505    1.22039982011284
H        -0.03514611923989    8.01432046413171    1.73029448051998
H         1.85104781107666    9.29857203860317    2.65810398322262
H         4.01948929391570    8.19431696607186    3.06505378784822
H         4.29015873210916    5.78826308171167    2.57731865606695
H         3.33570172179700    5.62775190719088   -0.48517242349805
H         3.25457518783252    5.61937927994594   -2.94429179464405
H         2.18200785860182    3.74524418004614   -4.14051249806915
H         1.19355741873649    1.87844317483892   -2.86608411103970
H         1.27497187434433    1.87079415954657   -0.42537651738527
H         2.54637594723706    2.99616409623524    7.17379086814672
H         3.35958669817125    1.92510466109585    9.23386273769911
H         5.31949757779325    0.43009258264819    9.16099198459135
H         6.46622255994432    0.00567137528682    7.01560525442535
H         5.65850248244189    1.06988622207379    4.95517793362237
H         0.87929024715515    4.64687762227663    4.77002107674123
H         0.70669595197901    6.93759570368133    5.58857213881285
H         2.71250775415568    8.15172722257488    6.34492333792833
H         4.92056730248318    7.04663201972452    6.27908832536251
H         5.11223191242567    4.73259720968007    5.43399972697752
H         6.30517614440783    0.06464209834912    1.66838599594923
H         7.75016249408824   -1.53398702175865    2.87977804000879
H         6.83828664496095   -2.81244180031884    4.78559112241554
H         4.49433149966446   -2.49167854811461    5.47598731907035
H         3.05930813408295   -0.91042811168492    4.29372534984193
H         4.60182609800322    1.97358553395730   -0.73099481539709
H         4.70428816346379    0.91687611470561   -2.94894718255403
H         4.02126576347743   -1.43937372443299   -3.23067704118837
H         3.24554142344305   -2.73787061098245   -1.28265249178108
H         3.14286711477396   -1.68744406582517    0.94034661011265
H         7.87796248675738    4.34017669714348   -1.01439526162866
H        10.28634452620804    4.26897037007314   -0.45247944001854
H        11.00947803246211    3.63492317498174    1.81940068489288
H         9.32794683744592    3.06426805590155    3.54298455546591

