96
CSD_code = YITSEZ | q = 0 | S = 0 | Stoichiometry = C47H43FeP3S2 | MND = 5
Fe        4.40418267306766    0.84464540978817    2.79617836811728
P         4.45684051578517    2.64977255124423    1.63091935356564
P         5.88254473795232    1.73381855554621    4.09015152724878
P         2.80524764405180    1.61295558846952    3.96571816336753
S         4.91420753045907   -1.12808111767408    3.56130495496765
S         3.57793048212631   -0.14883052678122    1.02826025784704
C         4.19678794564583    5.53313214289417    4.66568659107384
C         4.27300510748691    4.10856062681563    4.08886826102096
C         4.51568357390942    4.23797380188327    2.57779362253731
C         5.43663129789525    3.39020402216254    4.77959693654356
C         2.93959711580441    3.41477628370331    4.40423664605732
C         3.12646330925178    2.95952031715379    0.42075449216305
C         3.25552520531117    2.43631740316475   -0.86421815535140
C         2.22231587160398    2.55560124366252   -1.77408464929362
C         1.04488406015178    3.18953876959429   -1.41319267391738
C         0.90279426405174    3.69882313877208   -0.13378515310674
C         1.93318883292767    3.57793669097367    0.77965412354306
C         5.89288303029763    2.80127417824574    0.51774590138115
C         6.22091149571997    3.99770615385343   -0.11228645931794
C         7.30549018827052    4.04916200454404   -0.96745501840685
C         8.05621346658573    2.90989788787147   -1.21141355784554
C         7.71714476807320    1.71142608515592   -0.60647457847828
C         6.63825658252512    1.65837795079035    0.25575704049925
C         7.48012181124686    1.96707388196216    3.23463336134884
C         8.04636428486628    3.16316691215433    2.81522921611534
C         9.25165917700263    3.15820152077328    2.13387029017906
C         9.90008098857963    1.96575469373457    1.86720281370331
C         9.34039702456797    0.76647090889780    2.28140942219330
C         8.13527883959435    0.76818906144955    2.95311155262513
C         6.54693396803139    1.03917396408199    5.65069949229465
C         7.73245126749756    1.55696509034102    6.17107526677272
C         8.21458484176946    1.10726875282173    7.38489483732666
C         7.51925473201028    0.14121149665018    8.09580238949086
C         6.34045341772262   -0.37279615747095    7.58583290258160
C         5.85394903001546    0.07472477100403    6.36948765272912
C         1.04844908716157    1.59895134343198    3.44704419366120
C         0.65087372393467    1.14575886248200    2.19803979043671
C        -0.68620081654314    1.17513828274121    1.83927508818582
C        -1.63328042959144    1.65333662346874    2.72689426420810
C        -1.24347089852906    2.09724030338908    3.98186571094340
C         0.08894001058046    2.06980737662882    4.34290547679825
C         2.56905521908630    0.75933483242495    5.56178486192651
C         2.90440286702426    1.22252261305723    6.82684220772544
C         2.73268193407002    0.40547745109654    7.93190878935760
C         2.24289510426975   -0.87987207436703    7.78262131487170
C         1.92051510885564   -1.35575764043765    6.52016803903058
C         2.08366918075870   -0.54109695647606    5.41900257465734
C         4.14697741417919   -2.30478336942816    2.53639462125159
C         3.52674739012642   -1.85387407607167    1.36931791456144
C         2.90083793803961   -2.76011941085617    0.51731759461636
C         2.89875257254434   -4.10033054743613    0.83674580683302
C         3.51761839012477   -4.55043425577015    2.00119007054208
C         4.14045209069050   -3.66151190486233    2.84986691779548
H         3.33661295715174    6.06647177438422    4.26487938918637
H         5.09312186344734    6.09824694014683    4.41576524081434
H         4.10540791028573    5.50524545690095    5.75001142481422
H         3.78133347045746    4.92610527630300    2.14636239424171
H         5.50928002871743    4.66935649073297    2.42027933521410
H         6.32978797431852    4.02376068502030    4.78442763150573
H         5.16518293120957    3.20531849819168    5.82564023418284
H         2.72503126135885    3.52646356481708    5.47153253886863
H         2.13852183330952    3.92869207254535    3.86232253771476
H         4.16782957705190    1.92921746469486   -1.14487789516965
H         2.33396731553578    2.14590985607913   -2.76743103469051
H         0.23707806591440    3.28007913892192   -2.12460334264262
H        -0.01833252822642    4.18185623093839    0.15990256477975
H         1.79642201547927    3.96020118974957    1.78100667568555
H         5.62114280571637    4.88169639004007    0.05882871146947
H         7.56391738458796    4.97981646931695   -1.45238243903207
H         8.90234648117759    2.95668756237659   -1.88127829186866
H         8.29292549469949    0.81982840728107   -0.80646736773776
H         6.35926678763028    0.72690757001246    0.73893081618891
H         7.56287660289379    4.10845706431236    3.01803798504970
H         9.68498639007983    4.09372457631592    1.80972387008319
H        10.84046740222717    1.97035589000717    1.33587039454469
H         9.84379083557914   -0.16684985662252    2.07468564755124
H         7.67659727949679   -0.16071264248962    3.27354497071436
H         8.28196065794826    2.30691389434071    5.61769672453142
H         9.13692052648339    1.51023994706550    7.77874307556162
H         7.90077882975821   -0.21003644824647    9.04364476224798
H         5.79315574587088   -1.12701339065736    8.13225078339316
H         4.94169204301651   -0.33677346436644    5.96977194886510
H         1.39061770447614    0.76993707350897    1.50704348258381
H        -0.98405983504709    0.82350831038769    0.86231934833979
H        -2.67674517484692    1.67676218136671    2.44752739327479
H        -1.98289104176093    2.46264932275129    4.68044638661376
H         0.39258602579589    2.40534311008498    5.32609708705525
H         3.31202572858597    2.21393932175659    6.96821129677078
H         2.99353653516107    0.77497542658019    8.91359484781150
H         2.11814435997516   -1.51414649192302    8.64814557399190
H         1.54884533039183   -2.36257827562760    6.39764403814255
H         1.84900504850019   -0.90193990624529    4.42391487224755
H         2.42828919838670   -2.39365245171119   -0.38182208928459
H         2.41273961096102   -4.80716635003134    0.17992761345953
H         3.50816619029555   -5.60384770852047    2.24091191705871
H         4.62689540739196   -3.99195168169417    3.75556851694642

