49
CSD_code = YITWII | q = 0 | S = 0 | Stoichiometry = C22H19N3NiO4 | MND = 6
Ni        0.36329573368270    1.60325237379331   10.91339117876693
O         0.54754362632786    3.11185085220302   11.92926449631235
O         1.17253418270545    2.59554932075407    8.78232510032499
H         0.75780859842659    1.84253409467576    8.34184794328597
H         0.61546770593104    3.36315090678041    8.63248181594684
O        -0.04379067178863    0.18693161660777    9.69154080795137
O        -0.33174515627429   -1.97486200619595    9.38107211503574
N         2.15311726758522    1.02893754820244   11.17976947588927
N        -0.63815306398073    0.23371467776975   12.58290817262443
N        -1.60426325160082    1.99141157074234   10.74712199899888
C         1.49793458970245    3.43036115250259   12.72214338326525
C         1.35002850551544    4.57497913488628   13.55059395616295
H         0.42321639522153    5.12359159563313   13.47366886965480
C         2.33648709434430    4.96950582828012   14.41176140906279
H         2.18904165638445    5.84411853147233   15.02970306542369
C         3.53633739546371    4.25595868419281   14.50573423907992
H         4.30514698465229    4.57868545885242   15.19087996299491
C         3.72150022039916    3.15149461499040   13.71712979903059
H         4.64645779472649    2.59345082237190   13.77482867434149
C         2.72977015731250    2.71440265776163   12.82248099862483
C         2.97559353673672    1.57968034297005   12.00147502884276
H         3.98259178042859    1.15869757057659   12.08481234443504
C         2.62267515852055   -0.08243736416844   10.37958060781371
H         3.63161330008072   -0.37734701927211   10.70444324507733
H         2.68219028942953    0.25267296716265    9.33705339979607
C         1.69500090288266   -1.29363550122873   10.45588284279874
H         1.51761183396808   -1.57213215861258   11.49762399186373
H         2.15100742817222   -2.14611541783183    9.95085747151272
C         0.32038107307207   -1.02872231102524    9.79074791226472
C        -0.14873431751688   -0.62872144192270   13.44165334079014
H         0.83970796316864   -0.40968285822782   13.82652825182963
C        -0.83871568713378   -1.77191868759395   13.86301062076658
H        -0.37468633806056   -2.45817104089178   14.55436459635559
C        -2.10578626992552   -1.99313781668520   13.38382222673538
H        -2.67664103040906   -2.85941137072814   13.68627432479738
C        -2.66949538216262   -1.07051970143812   12.48649857832578
C        -3.98619829065774   -1.20687532062716   11.96296201643024
H        -4.56754187059867   -2.06690978568989   12.26186596553363
C        -4.49602298154312   -0.28431914089080   11.11351832314605
H        -5.49778604557476   -0.38473246863650   10.72189393036882
C        -3.72223012032891    0.83501285528168   10.69219984026276
C        -4.21617599039566    1.80442600239697    9.80423973613423
H        -5.22228211415944    1.71400322166589    9.42083259783797
C        -3.40832577735579    2.85495003670037    9.44577667494800
H        -3.75936159117296    3.62887018563637    8.78103410447444
C        -2.10261016041379    2.90496734754283    9.94326135673765
H        -1.45279524877828    3.73167032776612    9.68580753785727
C        -2.39657712368789    0.98350952261511   11.15680358247220
C        -1.87414269132892    0.02920958888033   12.09882808702091

