65
CSD_code = YIVCEL | q = 0 | S = 0 | Stoichiometry = C28H32NiS4 | MND = 4
Ni       -0.00019642209863   -0.00019588669521    0.00011062791564
S         1.68692192899533   -1.08777059368845    0.76140593450513
S        -0.08696496089079   -1.28554635741884   -1.71380014866240
C         1.98703763811035   -2.32456687841593   -0.38174907260477
C         1.20631849616164   -2.39573263733656   -1.51080483557233
C         1.38037194332015   -3.38073258943318   -2.58428582751964
C         0.30074029964839   -4.15967291065711   -2.99275760878416
C         0.45484224096528   -5.09136818612174   -4.00179578997973
C         1.68198023671358   -5.24569155087503   -4.62544735582124
C         2.75369402472170   -4.45600101286076   -4.24252258568418
C         2.60759642990189   -3.52783770506034   -3.22836176677944
C         3.01648716772056   -3.34066160419670    0.00294391518000
C         2.46320046451240   -4.25142799171001    1.10533339584984
C         1.22085430387738   -5.03598919105993    0.68444604845985
C         1.11240345777164   -6.13799749686413    1.74051771426703
C         2.55515779106254   -6.40629884013804    2.21280257139401
C         3.43281605583942   -5.36204647476581    1.50955915634858
H        -0.65411497210350   -4.03440821964658   -2.50439425329997
H        -0.38596662933687   -5.69777938004732   -4.30437585196691
H         1.80130990377918   -5.97369984640926   -5.41410028165943
H         3.70743525396498   -4.55982898670937   -4.73886739649179
H         3.43695774455827   -2.89357722121040   -2.95032072220728
H         3.28925824425938   -3.94946223971743   -0.85979949819205
H         3.90764834272389   -2.83266903828825    0.37766881253812
H         2.22221400430321   -3.63886411282173    1.97963068345179
H         1.38231608384105   -5.46807205988470   -0.30570074413466
H         0.32648681217612   -4.41550355888936    0.64280981097284
H         0.50380637433689   -5.78993454612592    2.57550734639095
H         0.64180723056618   -7.03396800388899    1.33829817991564
H         2.87608212338104   -7.41693919136402    1.96340798622332
H         2.62537169616463   -6.29673652948057    3.29482295503694
H         4.23647265667776   -4.99932762855318    2.14865978200811
H         3.88051832032985   -5.79072694466457    0.61084669501467
S        -1.68686225710468    1.08785501465623   -0.76149270400496
S         0.08699817157767    1.28555488098367    1.71369701125312
C        -1.98702070322932    2.32459784082434    0.38170796162469
C        -1.20630319112883    2.39573258064019    1.51076511811168
C        -3.01648323684207    3.34069294920318   -0.00294678551780
C        -1.38035573449373    3.38070062766650    2.58427253148053
C        -2.46320438116819    4.25146551506972   -1.10532867718564
H        -3.28924584460226    3.94947903573422    0.85981261716294
H        -3.90764995983512    2.83270346615234   -0.37766753263758
C        -0.30072926987987    4.15963797693990    2.99275367649323
C        -2.60757930477701    3.52778971157927    3.22835774498226
C        -1.22085980058091    5.03602779496214   -0.68443760406960
C        -3.43282391087844    5.36207834808150   -1.50955190135243
H        -2.22221361975649    3.63890492026902   -1.97962723225614
C        -0.45482822030360    5.09131898246256    4.00180251524778
H         0.65412208867686    4.03437808636408    2.50438479672539
C        -2.75367532760031    4.45594253685279    4.24252867394532
H        -3.43694049393814    2.89353347151184    2.95031132190179
C        -1.11241418541232    6.13804177223635   -1.74050353414125
H        -1.38232120754919    5.46810421994618    0.30571168287137
H        -0.32649096681625    4.41554384031936   -0.64280619714929
C        -2.55516886413459    6.40633397386747   -2.21279313638165
H        -4.23647921170839    4.99935737553227   -2.14865350166722
H        -3.88052822980177    5.79075531123948   -0.61083872270443
C        -1.68196479411347    5.24563266145039    4.62545934994051
H         0.38597919708387    5.69772872247850    4.30438510130833
H        -3.70741491295371    4.55976533955683    4.73887709756414
H        -0.50381096360893    5.78998728060397   -2.57549184547612
H        -0.64182599699421    7.03401380094679   -1.33827795901694
H        -2.87609901154246    7.41697271562698   -1.96340099819861
H        -2.62537787045166    6.29676993984454   -3.29481359271119
H        -1.80129227208654    5.97363472139725    5.41411684774402

