27
CSD_code = YIVFUE | q = 1 | S = 0 | Stoichiometry = C10H10Cl2N3OOs(1+) | MND = 6
Os        2.61798164758605    2.27200540774005    6.39686884488868
Cl        3.08257350533760    0.12230405355929    6.84852378122648
Cl        1.12314746612589    1.53452183354827    4.89228269900666
O         0.63698412731397    1.69804766325425    7.96270978801009
N         1.60926502968245    4.10605555499526    6.61833006368582
N         3.28411574570818    2.89892503645659    8.29227933704201
N         3.89478325466902    2.67026589060857    5.40417982224349
C         0.83737987205452    4.66578018759709    5.69406723481829
C         0.19931460450263    5.87880762755977    5.90098575905356
C         0.37362847714117    6.52014056564650    7.11706592551186
C         1.18830127350851    5.93672314655668    8.07523383942814
C         1.81013916576664    4.72079259770123    7.80225426279823
C         2.73425202047485    4.04995343207987    8.73116316863591
C         3.07540078756800    4.55723428938389    9.98252225705597
C         3.99706056893243    3.88187963990852   10.76777488024206
C         4.56561064332227    2.71407315857783   10.28439290972927
C         4.17575467624754    2.25470342288265    9.03611550580959
H         0.82841846172969    0.85154986516868    8.38720731664871
H        -0.13205422172323    1.53262963785820    7.40220492064525
H         0.72468481921851    4.12015944263245    4.76547007067690
H        -0.41754156867135    6.30152487775385    5.12490834817360
H        -0.11189039402356    7.46232724082539    7.31923583821083
H         1.33689480418458    6.42906923070436    9.02154577782588
H         2.63160592673916    5.46926339554077   10.34466912768723
H         4.26730269423043    4.26692055103333   11.73885130460641
H         5.29428026383110    2.16362484216676   10.85679013543921
H         4.58110634854302    1.34121740825992    8.61916708089998

