40
CSD_code = YIVFOY | q = 1 | S = 0 | Stoichiometry = C16H11ClF3N4O3OsS(1+) | MND = 6
Os        2.23267828608812    1.23459512873058    4.67245221951473
Cl        3.38401212894059   -0.63115654910808    5.27185212580868
S        -0.44519739583118    1.02283593830965    6.59191198363811
F        -2.11634557802344    0.05853862026636    8.40092513835787
F        -1.02192942319205   -1.42611325830522    7.27548760148121
F        -0.02114684539556   -0.27800495011300    8.80919970746345
O         0.85622136165898    0.48887606420508    6.14330562660768
O        -0.28370231177219    2.28142933081748    7.26778169987804
O        -1.41374429036443    0.98614391562287    5.52999744054482
N         0.90394917772231    0.32061071695614    3.35642524532289
N         0.83600016500491    2.62657895442968    4.57898523177475
N         2.82696565382113    2.44504965686930    6.25910398312264
N         3.39266849767935    1.68278542996269    3.57925896592300
C         0.96549416412081   -0.91458143728504    2.87546720082938
C        -0.04499150593040   -1.44878216243478    2.08976506758793
C        -1.14663462669840   -0.66032436498966    1.79750777039252
C        -1.20483831879990    0.63221347699543    2.29854941972191
C        -0.16659656536939    1.10779014761083    3.09090069735047
C        -0.19369951086235    2.42339907185726    3.75464972248769
C        -1.18971464675357    3.39249955047393    3.66356312099485
C        -1.09136925254633    4.51605220701127    4.47315107508010
C        -0.04995672814416    4.65140619833064    5.38123271508044
C         0.91695784155702    3.65041886198682    5.43133286592554
C         2.02128919897570    3.52554416541787    6.39928951784032
C         2.20337094269713    4.39993857014430    7.46431036935087
C         3.20319292076964    4.14852411288226    8.39294441660754
C         4.00953702893217    3.03298451495924    8.23169354213884
C         3.78753957865264    2.20386830890823    7.14209128618184
C        -0.94543705889312   -0.23438669424660    7.85643492129807
H         1.85224746769156   -1.48504995275266    3.12764766560138
H         0.03765197167746   -2.45932423060793    1.72315979433996
H        -1.95473417351270   -1.04398452907351    1.19342944194510
H        -2.05866501880578    1.25636531548606    2.09468620852057
H        -2.03093260602442    3.26778599996321    3.00309942340498
H        -1.85345866861799    5.27893586629033    4.41978058645556
H        -0.01163869817035    5.49819732072431    6.04521239372302
H         1.55677274345274    5.25365676274537    7.57921538907815
H         3.34264432230001    4.81315333327554    9.23197103978489
H         4.79525060056234    2.79985932987406    8.93222684731902
H         4.39358917140726    1.32267125781239    6.96450053152589

