57
CSD_code = YIVHEQ | q = 0 | S = 0 | Stoichiometry = C18H32I2N4Ni | MND = 4
Ni       32.05204175498002    4.57939436254999    0.00009917797798
I        31.89472791638675    3.17938446904399   -2.05016632104948
C        32.46498357569915    6.08968141158241   -1.06287739908398
N        33.68618499099468    6.50307438923852   -1.44085714111556
C        34.91365452147407    5.82494617812844   -1.07516384821793
C        35.63242845942863    5.31847516678375   -2.32120900614203
C        35.78975931861919    6.73602103872125   -0.22175388656304
C        33.58072343376537    7.63530968551405   -2.20366194076465
C        32.26345228830876    7.92542959116498   -2.29776164246093
N        31.59212337991952    6.96450981863211   -1.59012020259231
C        30.15644738609259    6.87106806277445   -1.41568015013468
C        29.47085486829756    6.65884034822722   -2.76133948733171
C        29.62999916504344    8.09587979645713   -0.67518563837023
H        34.60231331385003    4.95787043835595   -0.46638021235693
H        36.50520232662556    4.73821072746630   -2.03392346435630
H        35.95858247337495    6.14903049368756   -2.94323753232098
H        34.97110882809780    4.68203894329477   -2.90585379758265
H        36.66680154955669    6.19209166232076    0.11873336475812
H        35.23761667532251    7.08224473111401    0.64971776911814
H        36.11904423906170    7.60088861510842   -0.79331572624014
H        34.43149921953110    8.13824107640503   -2.61306998290874
H        31.76493709378763    8.72546649039924   -2.80352380053725
H        29.99265856137260    5.97742838861230   -0.78767213129804
H        28.40534059686708    6.50515213364265   -2.61295059650105
H        29.88058892913320    5.78236190719385   -3.25945095944866
H        29.60947112710666    7.52400875624376   -3.40583893320745
H        28.56856215460461    7.97784969934086   -0.47413339425118
H        29.77173871238406    8.99635185974882   -1.26863848741103
H        30.15033349321919    8.21615193148097    0.27297852106027
I        32.20912794992708    5.97961333178683    2.05003144080278
C        31.63902260926885    3.06897285337837    1.06284013506429
N        30.41781969600593    2.65560764568568    1.44085392440672
C        29.19036066354038    3.33376577734447    1.07518386081923
C        28.47159734377311    3.84023073361455    2.32123808146549
H        27.59882819381055    4.42051126061656    2.03396856198152
H        28.14543743093367    3.00967289444225    2.94325853109995
H        29.13293191433590    4.47664644277685    2.90588750145845
C        28.31425029005997    2.42271513332669    0.22175517737488
H        27.43721333898479    2.96665691333436   -0.11872817359387
H        28.86639971093520    2.07650591515884   -0.64971868255749
H        27.98496013155821    1.55783804894128    0.79329929077866
H        29.50170580933049    4.20084881563676    0.46640687960428
C        30.52327273158600    1.52337502975439    2.20366548233219
C        31.84054221420445    1.23323529354640    2.29774415721860
N        32.51187386455258    2.19413934385312    1.59008292137275
C        33.94755043618624    2.28757264581369    1.41564925251208
C        34.63315532761345    2.49986110519651    2.76129482564635
H        35.69867142923175    2.65353421500125    2.61289491420689
H        34.22343150536674    3.37636815450755    3.25936430814594
H        34.49453479058065    1.63472913489335    3.40584135195079
C        34.47399430146345    1.06274244743777    0.67518309836795
H        35.53542542607942    1.18078349822270    0.47410497773434
H        34.33227884583179    0.16229004420928    1.26866928622332
H        33.95363599658714    0.94243769850738   -0.27296444807340
H        34.11134636670307    3.18118210686346    0.78760804025164
H        32.33905204742510    0.43320168578462    2.80351963248800
H        29.67249928121906    1.02045965713277    2.61310252025048

