94
CSD_code = YIVLEX | q = 0 | S = 0 | Stoichiometry = C33H55I2N2SiV | MND = 4
I        12.06608004310383    8.81129866988193    4.48702374810905
I        11.21551636603505   10.37878180930939    1.10901597861249
V         9.96634086592452    9.79216306788127    3.31976860090325
Si        7.14657779588321   11.56382081283306    3.54740247533516
N         8.80166614683515   11.04771614896873    3.89595044449133
N         9.15258143374860    8.51172170162458    2.77229516738968
C         9.68496592966023   11.58761498276817    4.83128219662843
C         9.72219318134839   11.08631763243932    6.16478291052814
C        10.71688515134270   11.50948571667862    7.03484192690534
H        10.74661257927497   11.10396588978881    8.03395673537560
C        11.67392978347559   12.42745672581288    6.65514097134744
H        12.45483886016291   12.72202178358607    7.33878354985593
C        11.59776042437106   12.98197155499357    5.39477151011689
H        12.31469038941170   13.73413850980748    5.10617910388344
C        10.62201215522085   12.59924605935386    4.48317075696753
C        10.57806349009781   13.37156430682690    3.18178298917731
H         9.93594784982337   12.84662777282360    2.46707251208387
C        11.96845748487683   13.55825855963008    2.55685727408534
H        12.48822126180077   14.40099107900471    3.00732753898644
H        11.87010617649685   13.75766778139212    1.49233126576198
H        12.59168609457596   12.67518383191526    2.67897308186213
C         9.97692644455450   14.75806608060895    3.44746765482950
H         8.98575744234309   14.68866437885941    3.88837396448944
H         9.90897757483275   15.31468342264501    2.51477346384494
H        10.60918903569818   15.31686546073997    4.13524745312080
C         8.68676814115020   10.14109524841409    6.73822140364482
H         7.96972547208538    9.88419511788162    5.95070959574555
C         9.29829784944258    8.84485108144215    7.27850321426342
H         9.86542600409418    8.31720575487014    6.51764284220433
H         8.50351715767736    8.19238636848525    7.63397716337455
H         9.96962316765892    9.04529992707057    8.11021460181594
C         7.94565614229822   10.82802058424849    7.89693463284949
H         8.56516237862731   10.83435163192787    8.79107806350129
H         7.03064052544930   10.28593641140432    8.12815697946873
H         7.69567983709583   11.85953081760456    7.66447488438969
C         6.24764512245569    9.94795777197407    2.98019129286092
H         6.89128246037069    9.48465011342971    2.22758948696505
C         6.08806431293841    8.93009937757593    4.10910842933107
H         7.06167258062710    8.65115878285413    4.50842773762760
H         5.61169281011536    8.02425314227585    3.73360157676624
H         5.47395413086855    9.32686162545486    4.91554342679791
C         4.89081761490380   10.17824304158162    2.31920158477958
H         4.18675561933441   10.64411482408705    3.00235606591356
H         4.46691697790833    9.22373562967270    2.00563464321415
H         4.97878333218589   10.80823076577326    1.43954196917295
C         6.34239641772791   12.29289197830640    5.14575976641940
H         6.52640117775514   11.57625421615175    5.94661444976474
C         4.82524755123438   12.45299963162344    5.07973758579574
H         4.51827508296359   13.10228337289018    4.26658380021289
H         4.46220246896066   12.88774743943111    6.01143634748939
H         4.33949814343165   11.48951605783942    4.95446765345243
C         6.98395484365568   13.61365244653109    5.56529251624031
H         8.06005802660500   13.50412572554366    5.69245235343170
H         6.56692252459608   13.95812832463035    6.51220581588678
H         6.79987911031719   14.38796715907163    4.82366094124749
C         7.16852286793519   12.86482881508183    2.10311205404332
H         7.93524607132120   13.60792669491428    2.33036614200081
C         7.54346842275016   12.23426899062408    0.76198691203053
H         8.46875722006594   11.66842140342292    0.83577431499097
H         7.68136536931514   13.00721051149020    0.00656926068287
H         6.76368377622812   11.56186225813463    0.41711409868213
C         5.86505410074056   13.64748725311932    1.94763588620185
H         5.01570823829022   12.98907003311454    1.79206632916141
H         5.93828063707185   14.30969147540737    1.08503922187580
H         5.66970894904979   14.26506944032913    2.82011689723178
C         8.51548458567029    7.41436093923649    2.33950411297367
C         8.36306365575865    6.29273184045691    3.20135955258303
C         7.68286919211628    5.17327088112559    2.75980435113338
H         7.58393952180409    4.32333611584551    3.41651848623466
C         7.13406312951853    5.11684340843767    1.49282171268918
H         6.60240342222862    4.23565767412372    1.16740046777324
C         7.29134891717739    6.19266615888291    0.64067955774694
H         6.88504180290493    6.13760310767251   -0.35674239387115
C         7.96936299841490    7.33526857251533    1.02786968976959
C         8.18893065017606    8.43532039752222    0.02085790666841
H         8.52107551796141    9.32919743075430    0.55859950539889
C         9.29784074400676    7.99903880731835   -0.94284621029205
H        10.19319751110147    7.71971062002980   -0.39193435334904
H         9.55001353706186    8.81346421454267   -1.61709101601552
H         8.97408189870069    7.14206854042982   -1.52964452025153
C         6.92429015072296    8.79315276610360   -0.76225268820972
H         6.64962802686744    8.00275187897227   -1.45591482258215
H         7.10280690172887    9.69556082301041   -1.34213790267077
H         6.08747759077459    8.96777051928386   -0.09069324536903
C         8.99514278302703    6.29335156376568    4.56890019279431
H         9.27288819376215    7.32924977969027    4.80129761467261
C        10.26819713541640    5.44189957155855    4.52793832038939
H        10.02152859901506    4.40145048725981    4.32857007110265
H        10.79381176945108    5.50103409658696    5.47830283934210
H        10.93532334373790    5.79409624480644    3.74347410644695
C         8.05084018738196    5.79406727334832    5.66291203001763
H         7.12265341964484    6.36151996307925    5.66183015052565
H         8.52757759963101    5.90295021951295    6.63419434443878
H         7.81232061600327    4.74253111825146    5.52804692370097

