67
CSD_code = YIVLAQ | q = 0 | S = 0 | Stoichiometry = C22H32B10PRhS | MND = 6
Rh        0.04183717540275    3.16191617878855    2.39975884639012
S        -1.48981456666138    4.60937538308716    1.49273519879270
P        -1.77546651843776    1.90349536369710    2.83914271060432
C        -2.90870929299751    3.63654584572369    0.93642174150333
C        -3.15655777431703    2.21945738568407    1.63306657285098
C        -2.49716080958828    2.35779911012071    4.45579403677420
C        -3.58495975508512    1.70835922966804    5.03282547600632
H        -4.03965907933062    0.86584755720553    4.53380638441101
C        -4.08547189330501    2.14223349091837    6.24668628362330
H        -4.93215799350987    1.63673513874136    6.68732637632127
C        -3.50736266245835    3.22118706635442    6.89665000301104
H        -3.90519277008664    3.55684459091757    7.84282047104371
C        -2.42170592816354    3.86900335755983    6.33098979333325
H        -1.97059606754683    4.71138157152635    6.83445308840462
C        -1.92051162853535    3.43799696493740    5.11664597943999
H        -1.07628727625812    3.94594175796773    4.65250666397051
C        -1.60728813727161    0.08657612539658    2.96192142130119
C        -1.24144057768070   -0.62501632765751    1.81894198918564
H        -1.14738454052096   -0.10951611896188    0.87469782030041
C        -0.98841361355229   -1.98206727041007    1.88255285608296
H        -0.72159683363325   -2.52060279002710    0.98525812324959
C        -1.06445854229029   -2.64729040853843    3.09559035250794
H        -0.86755859183698   -3.70757411506364    3.14670472150499
C        -1.37117891590937   -1.94023559118922    4.24515830977373
H        -1.40393261256713   -2.44539516949444    5.19944648554656
C        -1.63086729053311   -0.58235217943470    4.18209286846484
H        -1.84774676507731   -0.04337537701184    5.09269124017627
C         1.38160798361176    4.82418859651943    2.80165062027771
H         0.76907333707570    5.72590853058445    2.78207629359221
C         1.75768530675838    4.27206455914387    1.59518743621220
H         1.39340841229769    4.74708593376020    0.68549225701802
C         2.98313139545952    3.40488486100432    1.42209594108463
H         3.41076658085526    3.58787314061313    0.43424593692108
H         3.73334883404420    3.69705487206720    2.15808711007182
C         2.65793854596146    1.90560109427315    1.54985925844622
H         3.54765250972381    1.35369365503325    1.87487749124411
H         2.38206461576868    1.51879421669697    0.56525722292725
C         1.51723805523908    1.61379525210304    2.49687588240278
H         1.05045961679811    0.64509330081716    2.31048994467013
C         1.37289859909961    2.15172429567427    3.77294221069170
H         0.78269120446840    1.57655317506260    4.48802362033185
C         2.37989645454131    3.09176146638323    4.40170854994778
H         2.37919149394831    2.93845553818566    5.48292982701580
H         3.37690833066754    2.83100197984124    4.04266583432312
C         2.08034207325487    4.57878382163358    4.11883646717711
H         1.44606153370736    4.97045655641766    4.91814918338075
H         3.01200508222778    5.15513529362547    4.13948441860270
B        -4.24702752767622    3.50321816128240    2.01493349230199
H        -4.11516398603875    4.01252988450390    3.06526448814856
B        -4.37171764576455    4.40291806785226    0.51278835547257
H        -4.40277579951153    5.57517948512859    0.56541323615278
B        -3.37002387365284    3.62357326751391   -0.71822718519742
H        -2.75039325973277    4.29346524414944   -1.45665661414807
B        -2.59148573567303    2.22999812944859    0.00225731287044
H        -1.44585449014250    1.98327784278724   -0.14384393621288
B        -4.83023806917298    1.86625556740717    1.75113912559354
H        -5.20994613248452    1.23165516356011    2.66384709122894
B        -5.65427757876286    3.25958265829898    1.00667842886089
H        -6.71520741781382    3.62141634548674    1.36189587958616
B        -5.12006183828392    3.33941379327055   -0.70027217886192
H        -5.81832572417375    3.76871202492611   -1.54344107141530
B        -3.99947947942797    1.97877139173776   -1.00792216954213
H        -3.90287115847433    1.44680969800314   -2.05222365977652
B        -3.82836923744986    1.08962335634229    0.52305107934411
H        -3.55823486770132   -0.04710921500466    0.65624494640945
B        -5.40562257760899    1.75757660198992    0.07282017811923
H        -6.30265030423171    1.05325162135409   -0.21546811990837

