74
CSD_code = YIVPUQ | q = 0 | S = 0 | Stoichiometry = C34H35ClP2RuS | MND = 8
Ru       14.36656397321784    8.70331105340524   12.05719965207581
Cl       14.18144926545065    6.31481663173307   12.22702389932157
S        12.23525024443623    8.40707835904302    9.45768341938807
P        12.13802518571741    8.67403573504334   11.57301323454756
P        14.33512643599254    8.45305197206089    9.78493314259960
C        11.13328657623963   10.19174013119668   11.69177786561083
C         9.92326468154391   10.25657756686783   12.36985133627648
H         9.50788746375009    9.36671883130878   12.82133807512119
C         9.25212930614946   11.46421049447981   12.46101698042881
H         8.30958826085871   11.51329504237058   12.98658046808856
C         9.78248445512807   12.60565677693554   11.88385070699102
H         9.25234126966333   13.54374897669552   11.95660656024935
C        10.99744034526548   12.54614447193402   11.21736858983951
H        11.41598249694797   13.43728794137485   10.77168287651457
C        11.67319848732988   11.34545258637548   11.13122357051555
H        12.63161030856857   11.28139686683442   10.62920062190389
C        10.95051457118352    7.39569024756335   12.08451039198652
C         9.89938472957533    6.99995426783325   11.26478588239297
H         9.79182444214057    7.44292200734853   10.28347303394408
C         9.01511773376750    6.03542355708366   11.71064862846820
H         8.19956897412511    5.72042665485364   11.07607720531900
C         9.17762752054556    5.46823931860336   12.96528679584145
H         8.48759365917676    4.70970431060578   13.30529512540941
C        10.22668442439479    5.86210197056437   13.77990399990246
H        10.35663570810989    5.41075480516141   14.75254368553285
C        11.11565817396186    6.82616016751265   13.34131701231148
H        11.95502542804882    7.12992194395708   13.95252361380306
C        14.92972368183992    9.73853330682396    8.63402442239678
C        14.13700336520969   10.78056388391528    8.17061472861919
H        13.08161217970678   10.79683467669388    8.40306753315583
C        14.69427171034106   11.77705841270306    7.38868788453867
H        14.07271685379003   12.58227423187115    7.02493407058473
C        16.04222812673941   11.74497975686257    7.07245873011139
H        16.47462920057890   12.52694246759614    6.46587928394301
C        16.83567625125703   10.70376448908599    7.52876950915536
H        17.88561826747774   10.67157570378407    7.27611713936083
C        16.28323866077581    9.70496618712750    8.30735494610497
H        16.89134859675297    8.88219759365966    8.66029163621305
C        14.91273940583021    6.97664337514589    8.88651131514346
C        15.93143180930286    6.21263410191022    9.44008259046207
H        16.32477110873308    6.47816393196395   10.41276442305112
C        16.40514354520264    5.10651219948755    8.75759889371253
H        17.19182005489786    4.50402270123005    9.18756034988585
C        15.86256018157750    4.76721625986589    7.52939993053746
H        16.22855926910477    3.89920127728001    7.00038149518387
C        14.84467474685870    5.53116827349034    6.97873473186174
H        14.41998703729400    5.25888586845273    6.02347359303576
C        14.36791904603085    6.63908312139077    7.65271819941751
H        13.56614305120196    7.23931784646593    7.24267442728845
C        14.93467130670253    9.04569368149501   14.16697191755216
C        16.13830173541476    8.71533868323218   13.44752966663727
C        16.34267629098033    9.70244921614924   12.45238502204289
C        15.27124053848298   10.66790143751936   12.54795138447490
C        14.43428394719313   10.27641785856882   13.64276319528448
C        14.49325522136368    8.35527183993054   15.42204627084200
H        15.16877256547956    8.60807515521849   16.24302564307824
H        14.51232761710289    7.27392407195309   15.28854816009323
H        13.48568416219895    8.65597200076020   15.70381076260542
C        17.04868953968555    7.58407598657179   13.81208785449513
H        17.38690397378490    7.70114978714835   14.84310941970097
H        17.91955473975764    7.55354202088787   13.16072833821596
H        16.52214664200697    6.63128150099249   13.73429493263296
C        17.57174957100654    9.88261099333009   11.61270181267047
H        18.30947777440969   10.46333307990612   12.17190404715677
H        17.34345123431229   10.42028789201771   10.69399896967845
H        18.01992299815710    8.92586765654909   11.35054033357071
C        15.28232662081096   12.00467865155479   11.86588238508806
H        16.06387412370264   12.63170711484768   12.30124785083771
H        14.33005058407844   12.51593832527091   11.98775124836370
H        15.48716471375021   11.90518911201847   10.79942530352385
C        13.33456438416419   11.09160028500397   14.25354897870664
H        13.73145306064528   11.65444557994106   15.10128919141437
H        12.52468679878541   10.45843446669075   14.61501279228260
H        12.91518958422421   11.79735124699284   13.53942831086554

