71
CSD_code = YIVQOJ | q = 0 | S = 0 | Stoichiometry = C21H35B10OP2RhS | MND = 4
Rh        1.20338302592055   18.69063676302342    4.90005592531643
S         3.50692240388049   18.54446486821457    4.88522919615169
P         1.44355419765173   18.14411966895821    2.72312012274532
P         1.38073144762831   19.04619722891921    7.14951649595609
O        -1.77413289097522   18.80596123053508    4.63090751143142
C         4.03320483013831   19.08616323633592    3.24128879028961
C         3.02296897788608   18.82858265123869    2.03170633551341
C         0.21116794910569   18.66542032134860    1.47973137572359
C        -0.35659919962724   19.92298313880451    1.67127401126359
H        -0.05375298305242   20.51466049920794    2.52749191602445
C        -1.29965786063295   20.41154038933911    0.78894149308798
H        -1.72996172652282   21.38953497770689    0.94503846724671
C        -1.69713384272334   19.64010895892049   -0.29155583754747
H        -2.43724757209265   20.01640109042686   -0.98190489990467
C        -1.15258967584100   18.38127164999062   -0.47743849110574
H        -1.46999712566956   17.77296985965587   -1.31174653138161
C        -0.20341072802371   17.89194380661157    0.40342018937547
H         0.20051485137838   16.90202224263610    0.25469123278016
C         1.48586298376363   16.32239400535159    2.53760583859323
C         1.94936899882566   15.61693900093991    1.43099175969319
H         2.36220112633171   16.13843617442464    0.58226382992712
C         1.91154701161796   14.23365249051254    1.42290975833719
H         2.27812292298657   13.69674740118251    0.56027168668859
C         1.41360451069324   13.53755789828379    2.51188861800460
H         1.39006968300808   12.45803518338601    2.49902887358228
C         0.95525478427628   14.23021619337461    3.62009434157148
H         0.57334220315839   13.69420663643154    4.47656634057777
C         0.99364336254521   15.61178435140955    3.63004208262598
H         0.64266349109389   16.16557037543955    4.50242693303819
C        -0.63099040317989   18.77454151335052    4.79534415634683
C        -0.10429017861191   19.06378658310907    8.25526493670708
H        -0.63302007827042   18.12170160284208    8.08302125181391
H         0.23492324587785   19.07965327342637    9.29563189622788
C        -1.04632808789971   20.22897274586726    7.98765994930481
H        -0.60227570519523   21.16873603827528    8.30698760775631
H        -1.98020333410338   20.09468891542696    8.53080793672986
H        -1.27593226821880   20.29715795678251    6.92570084290530
C         2.42877422996115   17.80935124237524    8.03326737006494
H         3.44881628145187   17.93720916626351    7.66183311720913
H         2.41863567429129   18.01684785037094    9.10725872586895
C         1.96011255898228   16.39033380924373    7.73657570750310
H         0.95468057105219   16.21904630043347    8.11676902720220
H         2.62847987792181   15.66020796558944    8.18859599141821
H         1.95710616053517   16.23101116599317    6.65663990504293
C         2.25313214800593   20.61566111755928    7.58637556141211
H         2.02802666584677   20.89881040213880    8.61814157879454
H         3.32304218328917   20.40373703379479    7.50713078005878
C         1.89073118094198   21.72660259145306    6.60633697484189
H         0.85466762864588   22.03701828743969    6.71914824687812
H         2.02767273821209   21.36138361469224    5.58440751812326
H         2.53059790148150   22.59514397972565    6.74911276419581
B         3.24746844846155   20.46076924083001    2.56505605772149
H         2.37044638780761   20.91275863296279    3.21472946578042
B         4.93452413696758   20.53239318660232    3.02362040804559
H         5.23346690867827   21.12950604099038    3.98988326804271
B         5.65568705345105   18.94265165353355    2.74033210891247
H         6.42650161296805   18.51723161102216    3.51731089428623
B         4.43571408190649   17.85615186683824    2.09498164891039
H         4.29612716643872   16.74943405891156    2.46522914160357
B         3.12039110980625   20.09052634641163    0.85734964246285
H         2.13443098527245   20.38222784411842    0.28468764037039
B         4.38407171134765   21.19407316693228    1.45858394079461
H         4.35316899420025   22.35046861142027    1.24811662178872
B         5.89984192126770   20.25151957337151    1.56080819267395
H         6.95314411583700   20.75472243740574    1.41775370644906
B         5.57285816506839   18.58746087437830    0.98651547471055
H         6.38256048442933   17.93117913294943    0.44165901200475
B         3.84438938992870   18.50952828363645    0.56432998887378
H         3.33821514791399   17.80262336401608   -0.22779094965428
B         4.76778329835642   19.98272654723456    0.20728656593806
H         5.00800473211973   20.29032207767654   -0.90241204171744

