67
CSD_code = YIVQAV | q = 0 | S = 0 | Stoichiometry = C22H32B10IrPS | MND = 6
Ir        0.08540475774244    2.38637562217820    2.33053599501073
S        -1.42471754950296    0.94694669851773    1.24868635994330
P        -1.77947998120976    3.63168995778724    2.78978387448749
C        -2.89826253489161    1.91002692572611    0.82779804205234
C        -3.17575182303328    3.28837805762613    1.60619371435992
C        -2.51609132553756    3.22059979239825    4.41095027085380
C        -2.02960775491850    2.09333452653088    5.06445345953891
H        -1.23139102349234    1.52607252658930    4.60179282454170
C        -2.56170921563144    1.69864269329626    6.27788266803256
H        -2.17912091529871    0.81979830498516    6.77546339214318
C        -3.58825581439426    2.43072187781352    6.85083276284809
H        -4.00884680214810    2.12474705228954    7.79714957178012
C        -4.07503494702263    3.55842944777547    6.20937575353428
H        -4.87321763938029    4.13205471618519    6.65689213651132
C        -3.54351262356025    3.95540937324110    4.99588644456707
H        -3.92142609260525    4.84147552288292    4.50759921137641
C        -1.59391431106898    5.44848816925453    2.89288099283127
C        -1.48141893935713    6.08928420146411    4.12465414313483
H        -1.61587507398883    5.53131198852755    5.03982833618369
C        -1.19327274194280    7.44062505598970    4.19392978605572
H        -1.12037903426908    7.92154896964142    5.15840342347165
C        -0.99213365196965    8.17191973366537    3.03602805195159
H        -0.77382249435785    9.22780560421191    3.09117784221473
C        -1.04857802323993    7.53455886108626    1.80746479206387
H        -0.86376384978331    8.09018170358733    0.90013105648741
C        -1.32825856583447    6.18264088779785    1.73725472837940
H        -1.33321929785269    5.69351685464780    0.77618064051319
C         1.30451699199317    3.32472449242124    3.83598840053955
H         0.69234041874724    3.87782817312114    4.54790496842771
C         1.52883736104881    3.93478353471059    2.59150733474842
H         1.09116314238416    4.92234907118486    2.44160957194105
C         2.75309766012549    3.70868128121392    1.73448448948869
H         2.56876831861238    4.17259475082752    0.76342404610566
H         3.61194489770971    4.22392019273927    2.17913514281403
C         3.07957518958956    2.21918297034374    1.52289325612576
H         3.79007680833538    1.87551952911633    2.27596555354547
H         3.55810155677341    2.09840682420847    0.54943788259741
C         1.84480633439161    1.34834688733247    1.57622528951470
H         1.56249592538033    0.89579893981422    0.62963323772036
C         1.40258376328651    0.72868979360446    2.73433387816509
H         0.82655718011217   -0.18853089761238    2.62929844517364
C         2.03436153823973    0.90024713718960    4.09552747846849
H         1.36710871640170    0.45329312971557    4.83534341216760
H         2.97261212560832    0.33621410341604    4.12965046860091
C         2.29114584045278    2.37155076637508    4.47885944085839
H         3.30375364349295    2.66490773989225    4.19759990238889
H         2.22051774431354    2.46531338433489    5.56419990197399
B        -2.69391892646347    3.37403316220623   -0.04456742228866
H        -1.57446786026101    3.68379138793664   -0.23991969984552
B        -3.44656060092101    1.98243045649453   -0.79800844737336
H        -2.83499958675030    1.38045515100023   -1.59878269797974
B        -4.35028890779403    1.09974990339216    0.43826744722306
H        -4.32618082490102   -0.07366132000015    0.43490293885889
B        -4.18206344359570    1.93404373307565    1.97372548787620
H        -3.97636395311462    1.38731576759905    2.99294866721429
B        -3.95762129019934    4.43065729815759    0.58741874465785
H        -3.73407542887629    5.57164224706873    0.76303569694279
B        -5.20398218644107    2.18201754617232   -0.68340265122060
H        -5.92282035880352    1.76077966886106   -1.51310326805670
B        -4.16115736706283    3.60703363589699   -0.97484932028398
H        -4.14083826323616    4.19120376162310   -1.99518724551529
B        -5.65320305664032    2.15382920101202    1.04895508467837
H        -6.67634410551444    1.72507736612812    1.43848929100015
B        -4.86038014998745    3.54708193842842    1.81975403841394
H        -5.22465631599694    4.10876490758718    2.78439319834400
B        -5.52214591026288    3.70908239516577    0.17988219573376
H        -6.46353935165018    4.38216486257003   -0.03068441463689

