70
CSD_code = YIVRIH | q = 0 | S = 0 | Stoichiometry = C27H34ClNO3P2PtS | MND = 4
Pt        4.52572740212106    7.98351453445597   11.01541612424409
Cl        2.92005501691975    6.97043806161147    9.74936802009064
S         4.82310412524225    9.84218399371351   13.02394338185269
P         4.65470319905907    9.59856224150227    9.38329730054081
P         4.33993782682463    6.16230832081350   12.41491272073121
O         8.02238012490642    8.11552365878687   12.42018770959042
O         3.79437688914474    9.02604168019730   13.62210932678653
O         4.36587980046414   10.93203752854536   12.20477565311643
N         5.89321079017670    8.91256282410431   12.21837795885233
C         7.10125841032198    8.82279624551449   12.78747504335222
C         7.18140543891361    9.74275772043905   13.97374048728737
C         8.30281733963259    9.95551832683069   14.75887911906975
H         9.22194899963699    9.43985284959774   14.52700184524187
C         8.20350610572157   10.83627329227413   15.82558924086870
H         9.06551109293069   11.01953528785438   16.44969681405450
C         7.00930478380139   11.48682783353732   16.10171404377277
H         6.95186402790560   12.16891778217743   16.93663672710846
C         5.88332736631851   11.27060771876251   15.31499130192335
H         4.94934256030763   11.76995786144841   15.51981767339644
C         5.99360173594508   10.39594373483748   14.25882080549472
C         3.06415310840808   10.41468275573878    9.07913269270160
C         2.12139726784838   10.38623236404183   10.10144668270518
H         2.37153783750566    9.90555971782681   11.03891945745374
C         0.88126033290584   10.96994077674862    9.91983242065501
H         0.15180132877590   10.94423066203857   10.71556396060522
C         0.57201714273164   11.57930252478826    8.71477666839474
H        -0.39722391714518   12.03404111746307    8.57059740422819
C         1.50156455365658   11.59586408500617    7.68792364699782
H         1.25610619708806   12.06055115192897    6.74367965302901
C         2.74334326495459   11.01221501661721    7.86438057317595
H         3.45500418876748   11.01323698809918    7.05184332892341
C         5.06884121027358    8.79333188721942    7.77674828745615
H         4.15874172223450    8.30746177183634    7.41780448752534
H         5.38805235190783    9.53300656052963    7.04014666450700
C         6.15617432093305    7.74935862160302    8.00512727301941
H         5.79540474480647    7.00663851004763    8.72102922774040
H         7.06027100908095    8.20411638205982    8.40579728530565
H         6.40601494157300    7.24084455271819    7.07624783031306
C         5.90931285468590   10.94332381452985    9.55318677772028
H         5.70176284772862   11.41814686389833   10.51375177953656
H         6.88202258253206   10.44684731856439    9.62720471905552
C         5.92070019073061   11.99419372764364    8.45098788128361
H         6.15410319410479   11.56108732427238    7.48060079934209
H         6.67910526910208   12.74320878066621    8.67205797972104
H         4.95739860167389   12.49535119710518    8.39009153449233
C         2.65186383536323    5.61034693797779   12.79305820903239
C         2.12742460796300    4.39857307274487   12.35953859070482
H         2.72618717962609    3.72331510758621   11.76832467481083
C         0.82362317691926    4.05685317888953   12.67491204930168
H         0.42107884645043    3.11343068650092   12.33545933446505
C         0.03435671637393    4.91972012364928   13.41552548850628
H        -0.98324635502470    4.64875871001084   13.65654347938244
C         0.54791765441580    6.13655061998522   13.83525830535145
H        -0.07053180596628    6.81780188097428   14.40139072380152
C         1.84885133696574    6.48406680736902   13.52364150381930
H         2.25110491639531    7.44031746579905   13.82711340485131
C         5.12781910145384    6.21246742132247   14.08255451972358
H         6.17405754768726    6.49609425174480   13.94222101490733
H         4.63546263517389    7.01980475834996   14.62963858260854
C         5.02138478862160    4.90343998432590   14.85510075701482
H         5.60869080875026    4.11847379224875   14.38458011229726
H         3.98501793359369    4.57419560067227   14.91318845430104
H         5.39452452965737    5.03946548048489   15.86855455976484
C         5.15973008278819    4.75219948964171   11.56540439697380
H         5.05416935075278    3.82937296323092   12.13996120390611
H         4.64466779850971    4.63170714132420   10.60750597146674
C         6.62876105194116    5.09017182464982   11.32544446375366
H         7.06967080717802    4.40496546684374   10.60449323747306
H         7.20329460243828    5.03250892174352   12.24671326688980
H         6.72478866884053    6.10896234190520   10.94174338167039

