58
CSD_code = YIVRAZ | q = 0 | S = 0 | Stoichiometry = C23H26ClNO3P2PtS | MND = 4
Pt        3.72857355806461    9.86480551733193    3.53415226259500
Cl        5.52544266903138    9.37737624571236    2.20395795685315
S         4.98893228001632    9.34530937004534    5.96768474561608
P         2.61610522375679    8.79616254959028    1.88632654019702
P         2.02296300253811   10.64284044192412    4.87131854909516
O         6.44361298698989   12.28728730261439    4.30946599518345
O         4.08100975193161    9.64493900990651    7.05208113949532
O         4.70710703937581    8.10496784320760    5.28579706854489
N         5.03090626934389   10.60839698204202    4.93671764558973
C         2.49771575447659   12.14180181515824    5.80413432293457
H         3.11291454959263   11.82648889435139    6.64563998831624
H         1.60570700021302   12.65909753424709    6.15959901046113
H         3.08075127994162   12.80073923910814    5.16217360112344
C         1.13236825261427    9.68329259597060    6.14499579135906
H         0.55592614574555    8.88093197173532    5.69267632183158
H         0.47832665917802   10.34789488977362    6.70905493597219
H         1.88558939026112    9.26814673541615    6.81324907270269
C         2.77955555919181    9.49821240052480    0.21137278503085
H         2.33935850231467   10.49218152716285    0.17316776501948
H         2.30149289592927    8.84382357901836   -0.51678720854192
H         3.84635961994150    9.57458518420944    0.00428005511388
C         3.21648101863271    7.08635990123938    1.66293750987153
H         4.23356556897228    7.14239102675131    1.27907629343394
H         2.57077392654606    6.54566223558284    0.97101040995039
H         3.23919790813855    6.58199768778356    2.62716610746772
C         0.73424022052637   11.31006244419019    3.76954379653533
C        -0.63088881218035   11.22603633249755    3.99822653282345
H        -1.00816011990310   10.72798310064318    4.87815145188869
C        -1.52035404180888   11.77352849285966    3.08857830601011
H        -2.58282789831612   11.69981906223588    3.26845577788756
C        -1.05405096177584   12.41416201255371    1.95431654593351
H        -1.75201420348090   12.84154883148009    1.24981859787025
C         0.31003814243205   12.50478440336105    1.72193254305937
H         0.67512912601991   13.00798449995027    0.83849088593853
C         1.19786370868451   11.94923098800485    2.62242817171307
H         2.27142010104870   12.00081973979937    2.45488811187456
C         0.83090009737091    8.53026755620082    2.12913283454045
C        -0.15755731249612    9.03234675709995    1.29477219961975
H         0.10701388434706    9.61180809892745    0.42431645952331
C        -1.49162569500061    8.79623946667069    1.58047067612820
H        -2.25636146086797    9.19117521841285    0.92823469883392
C        -1.84757377881788    8.05782597209267    2.69525001426639
H        -2.88921129618463    7.87524012921137    2.91333655176960
C        -0.86470142992999    7.55297774209874    3.53255772595153
H        -1.14192882858992    6.97280622815661    4.40109478906562
C         0.46676327979093    7.79328201215832    3.25274310249463
H         1.24795477533447    7.41298950159876    3.89876887042602
C         6.19803497530084   11.27802553960983    4.93940459133449
C         7.17422095197238   10.62981587977685    5.88378981774788
C         8.47411847231084   11.04844910646898    6.11464099600494
H         8.84969916950502   11.92544621245021    5.61047792335654
C         9.25699013842065   10.31203403031875    6.99104422310305
H        10.27515482030686   10.61674993110550    7.18319778050929
C         8.75082825731512    9.18520210317723    7.62354503525436
H         9.37774293853909    8.62385637215846    8.30018087543274
C         7.44481240116300    8.76755431005851    7.39473404998074
H         7.03850072465895    7.89362671744200    7.87950991035667
C         6.68059284156959    9.50272872691191    6.51851748741981

