39
CSD_code = YIVRUQ | q = 0 | S = 0 | Stoichiometry = C20H15MnO3 | MND = 8
Mn       -2.00302247447549    6.71453715916655   19.71334782841708
C        -1.88548829952707    8.86926591454950   19.57513083703589
C        -1.83789360959218    8.43305170375752   20.91175472789006
C        -0.83623485013112    7.51538365078312   21.29898622533789
C         0.54061836449861    7.73143042341378   20.70376436933596
C         0.40405452490496    7.91271467590179   19.21117692093905
C         1.45184362042622    7.58981241949066   18.35369668728476
C         1.38040385040674    7.87450329182409   17.00459736869644
C         0.25339391418258    8.50392000040954   16.48805004322494
C        -0.79722105259531    8.83318361800843   17.31394492641173
C        -0.75078591725347    8.54919099627611   18.69254512975366
C        -2.85751395369536    9.91249751801494   19.18700670621168
C        -4.22438867119376    9.71268160590209   19.35555441781426
C        -5.12509369055781   10.70897832583446   19.03213938154864
C        -4.69009861938673   11.93132270012532   18.53617254751733
C        -3.32344898222662   12.13056303388916   18.37458255711479
C        -2.41711566633036   11.13910271726249   18.69370532113307
C        -5.65945608251452   13.01957235807936   18.19130899076702
C        -1.05683594213494    5.19843312721901   19.81976561086477
C        -2.80968127196840    6.55231552474649   18.12180908682153
C        -3.43709561531825    6.08832573067873   20.57367878741459
O        -0.39312876789278    4.26720233268390   19.90733296528054
O        -3.30458627825777    6.49096028376080   17.08787645780817
O        -4.36872286728329    5.73135844484868   21.15221259032931
H        -2.61851245681255    8.74960733748495   21.60522220765868
H        -0.82588515678342    7.20647834932497   22.34389415320410
H         1.20161419633520    6.89005892721050   20.92779843195212
H         1.00644490355713    8.63224806735116   21.13936635533695
H         2.33220753635513    7.11254274265908   18.76141753954107
H         2.20103443360798    7.61419241735650   16.35355204046573
H         0.19828914099219    8.73280665573566   15.43446201141781
H        -1.67699943446650    9.31229184788867   16.90696417461322
H        -4.57872699173462    8.75536577126566   19.71988048899645
H        -6.18266584139361   10.52997505595292   19.16114588049473
H        -2.96528299893759   13.07658732715009   17.99367192385121
H        -1.35719398701834   11.31820149049329   18.57092905230758
H        -6.67923442671848   12.64358018440470   18.18062512917758
H        -5.43001650218672   13.44320441509537   17.21508775501101
H        -5.59727407687845   13.82335185400030   18.92534237101909

