78
CSD_code = YIVRED | q = 0 | S = 0 | Stoichiometry = C35H34ClNO3P2PtS | MND = 4
Pt        5.02218831586216    7.67907746346855   11.16379449612209
Cl        4.96411479754758    5.40955949699771   11.20886214864764
S         5.51570018072272    9.71244592138254   12.83990072356434
P         2.80567925801754    7.66307721259058   11.79998956985119
P         7.26171805488494    7.62068617280251   10.61242450182050
O         4.22391786782642   11.17881725696930    9.71496268936057
O         4.51307089192604    9.06766073555238   13.65114023500701
O         6.86458344650952    9.22397631249104   12.95515992158771
N         5.05012402935785    9.73551849574007   11.27831511855847
C         4.68731076406032   10.93805440747175   10.81514464889448
C         4.94696456802507   11.98953251573821   11.85809331416617
C         4.74261711786588   13.35096237137183   11.70299095484848
H         4.36498519770571   13.73081993695476   10.76629278892871
C         5.03437273464322   14.18736168429500   12.77025051914103
H         4.88330731703959   15.25203491426614   12.67154470063419
C         5.51806142209263   13.67396841214681   13.96535242668106
H         5.73941543800989   14.34154092588432   14.78445756619910
C         5.72038686206783   12.30716230832452   14.12145396638133
H         6.09379043563585   11.89418199516730   15.04541128015769
C         5.43009261526169   11.48688230914044   13.05567329912841
C         8.05512294824561    9.17871234796596   10.03183563528662
H         7.97002727355759    9.91627057743568   10.83221374562718
H         9.11496092323048    8.97428417741950    9.84676728986339
C         7.37604186242952    9.68353616098238    8.76355990483989
H         7.51620168864864    8.97764431049249    7.94639189377072
H         7.79359191609701   10.64365264573089    8.46549765948351
H         6.30631093204488    9.81296283111300    8.92393911858557
C         7.55785951473292    6.55518839977255    9.16369250413428
C         8.82918647234865    6.08434052387678    8.85661498200772
H         9.65884581977703    6.30951430191377    9.51319062298771
C         9.02787713492106    5.31943427590350    7.72178406017851
H        10.01605039860018    4.95073414911999    7.48761306242769
C         7.96186272977932    5.02362850369760    6.88709971784839
H         8.12094934984729    4.42244001953794    6.00397353450400
C         6.69408439399439    5.49423413051089    7.18709711764708
H         5.86261071294869    5.26058183832971    6.53909062028693
C         6.49347893438825    6.25943868363540    8.32146737053270
H         5.50455927427804    6.62569143349149    8.57768287656287
C         8.40534044549501    6.91393830374594   11.82939360497676
C         8.30990342864093    5.54730915714921   12.08463466497074
H         7.56706462728101    4.95914879947048   11.56352864482107
C         9.15302307560463    4.95321005486368   13.00475484188555
H         9.07367318024401    3.89377433404913   13.19921543590258
C        10.09329646335117    5.71587981232992   13.67869563612075
H        10.75167572254295    5.25197680329041   14.39884994509619
C        10.18260782357396    7.07614356762544   13.43432152704386
H        10.90996324125235    7.67302726628055   13.96575282580210
C         9.34167368639735    7.67820284271618   12.51493614762951
H         9.39822214852355    8.74205952519562   12.34805520474417
C         1.92395693368309    9.28407238708492   11.84087574585833
H         2.35756664718918    9.87487630997325   12.65089005080006
H         2.16355937328486    9.78653203199383   10.89791759190010
C         0.41334895752272    9.15958963851694   11.99834122263067
H        -0.01950104885237    8.63938713074248   11.14618581543885
H        -0.03483706962757   10.14994009937747   12.05712599927588
H         0.15613701023209    8.61139320884597   12.90260224818425
C         1.87954786623581    6.81630556868380   10.47960409607546
C         0.73348882155519    6.05656391053531   10.67436438948192
H         0.34358156520645    5.90999886186418   11.67164025021290
C         0.09645798452558    5.47984210645215    9.58897392493561
H        -0.79131217779934    4.88398864556184    9.74390325273489
C         0.59252838032889    5.66257725976637    8.30899419549388
H         0.09383165223413    5.20470180272129    7.46751173683699
C         1.72889854675043    6.43033863442454    8.10808488055686
H         2.11475084615390    6.57602815309631    7.11010294969934
C         2.36809234124033    7.00425870919867    9.19009455074300
H         3.25947244047155    7.61379006873762    9.05324059070899
C         2.35233472504145    6.80471837553923   13.32832615446854
C         2.06995891849316    7.50101506779790   14.49909311102444
H         2.11902845625006    8.57835856235349   14.51187134251051
C         1.76165663201023    6.81088434747166   15.65759447289677
H         1.54012093871089    7.35656678822113   16.56358519065015
C         1.74361763806034    5.42587748293159   15.66200608385553
H         1.50278042381634    4.89133750887818   16.56942848264046
C         2.05040258786158    4.72832564249184   14.50496624010669
H         2.05633497210685    3.64830182452130   14.50875044295822
C         2.35769435114295    5.41085781319871   13.34249178774080
H         2.62003384828374    4.86839143251122   12.44546813441511

