75
CSD_code = YIVROK | q = 0 | S = 0 | Stoichiometry = C20H48Cl2P4Ru | MND = 6
Ru        0.00002326406351   -0.00014270778690    0.00012351192482
Cl        0.49022631589394    1.71327854970856    1.60707799257879
P        -2.03297253578669    1.02628767250147   -0.45396393106630
P        -1.19558051184415   -1.04265795997036    1.69934797632434
C        -3.31321810170117    0.24669297320201    0.62430549825778
C        -2.68829773631453   -0.00430005463070    1.98758729911332
C        -2.36501921735331    2.78741939230824   -0.01214624594009
C        -1.41073987781026    3.77413143698372   -0.66072029540270
C        -2.81130862074313    0.84642819245411   -2.11901134688521
C        -4.32192810988021    1.02640139976447   -2.20254315779737
C        -0.45734968622940   -1.13485544297826    3.38616373391108
C        -1.37992371507157   -1.42507910294475    4.56275575380308
C        -1.91646545406596   -2.72888551443201    1.41615555047873
C        -3.30732610635337   -3.04601901331876    1.95612693213629
H        -4.19942108842545    0.88552418014864    0.69036448058581
H        -3.58490328124447   -0.70546477828435    0.15530855890679
H        -3.38535454063904   -0.48812431086196    2.67514578265757
H        -2.33545352577543    0.93317819506699    2.43258492364454
H        -3.40311700616262    3.00576901903827   -0.28219359922332
H        -2.26483911715490    2.85827033293339    1.07455715472787
H        -0.41131267664676    3.60115336719237   -0.27141911844238
H        -1.40095367097292    3.66111326926455   -1.74435490785923
H        -1.70089733814411    4.79661877158485   -0.42445864074051
H        -2.32280353709999    1.57277627714679   -2.77385303254417
H        -2.52967825918226   -0.15304067759907   -2.46612043354859
H        -4.84721959832181    0.25115427063961   -1.65180276636867
H        -4.63287201303148    1.99664874552684   -1.82078244898915
H        -4.63150766258961    0.96326462030523   -3.24452231947208
H         0.04225389841205   -0.17075879346508    3.52873508650600
H         0.31487914835250   -1.90905169145780    3.33096540940255
H        -0.79906526261148   -1.40670045929824    5.48395608307968
H        -1.83534709261044   -2.40839966990598    4.47595520043106
H        -2.16296741840698   -0.67681225339034    4.64829942287417
H        -1.19334828609466   -3.42865981737799    1.84523094337646
H        -1.90847654149276   -2.87388263156010    0.33027417616349
H        -4.07608915580233   -2.45379046651802    1.46643659919678
H        -3.37828982260181   -2.88388350198637    3.02843457083864
H        -3.52550302172529   -4.09532077198953    1.76100028576555
Cl       -0.49029727351065   -1.71328750152524   -1.60759752330315
P         2.03308934685247   -1.02626367736583    0.45399334662658
P         1.19547132472406    1.04266212549297   -1.69924813910448
C         3.31326107527635   -0.24664993432155   -0.62432977384803
C         2.36500173225212   -2.78742184186131    0.01214651421634
C         2.81133795612487   -0.84642523130288    2.11907613288913
C         2.68822681445040    0.00434649513061   -1.98756219280296
C         0.45736266624864    1.13486469027670   -3.38612611125970
C         1.91647071431898    2.72886049169759   -1.41614347868118
H         4.19946095689563   -0.88548148841513   -0.69041275761059
H         3.58495608948553    0.70549439819862   -0.15531755028875
C         1.41069055380299   -3.77413362296506    0.66068412144093
H         3.40307818682098   -3.00581003769886    0.28222706595595
H         2.26487688896797   -2.85826145148407   -1.07456692178460
C         4.32195649324690   -1.02638292759927    2.20255446885273
H         2.32285094023522   -1.57280822882237    2.77389336378613
H         2.52967371406493    0.15302835909715    2.46620874223490
H         3.38527650606876    0.48814491828062   -2.67514814426888
H         2.33541018988941   -0.93314277688363   -2.43256525635164
C         1.37992737832470    1.42508801749313   -4.56273479575561
H        -0.04224452635079    0.17077187957745   -3.52871986045970
H        -0.31487134532314    1.90905536808844   -3.33094538048027
C         3.30734227142762    3.04598994157988   -1.95610880018334
H         1.19337986200336    3.42864675014145   -1.84523782020212
H         1.90845480657032    2.87387345770251   -0.33026298552697
H         0.41128051758638   -3.60113117587201    0.27134725113022
H         1.40086689668455   -3.66114196714263    1.74432236714184
H         1.70083497680197   -4.79662843054838    0.42443196917694
H         4.84721121738121   -0.25108174030706    1.65185207168709
H         4.63292360486686   -1.99659966452972    1.82073019319936
H         4.63154896775395   -0.96330525427120    3.24453234480879
H         0.79907990232635    1.40672441737462   -5.48394421410904
H         1.83534642389867    2.40841050767219   -4.47592629952684
H         2.16297481814225    0.67682496655885   -4.64828726691875
H         4.07608584146618    2.45376442735482   -1.46638631474064
H         3.37833180826705    2.88382923745696   -3.02841152357305
H         3.52553866505901    4.09529545766731   -1.76101752481378

