65
CSD_code = YIVREC | q = 0 | S = 0 | Stoichiometry = C30H26N4NiO2S2 | MND = 4
Ni        2.05080425811090    6.88257793274362    5.02893018256538
S         1.67234650592753    8.78494997067695    4.08610199917968
S         0.82422552637672    5.89044191064659    3.55948540054105
O         2.41173315782867    5.24546072374180    5.89228732098548
O         3.14235450858326    7.70077381329332    6.33144922811718
N         3.29538364338627    9.98182176462324    5.95009113719284
N         2.34269622539696   11.29991163056921    4.39799734764955
N        -0.00102692900251    3.46551256205740    3.00162600135207
C         4.44829870409232    9.00761235620907    7.77623574492712
C         3.55793718757108    8.85280881348484    6.59918712200378
C         1.57329645124822   11.58601166305519    3.24683233256978
N         1.34003650159144    3.49981757660899    4.80693498601297
C         0.76156457425069    4.19274822798018    3.84282197721856
C         2.51742007763502   10.05526404637436    4.88547578843946
C        -0.66543115203652    4.01216476420734    1.88019553127102
C         2.11188034572490    4.03718112431728    5.74503296072850
C         2.67170332062426    3.06494838064121    6.71637692603512
C         1.88831643550732   11.01247379303181    2.02029421444225
H         2.71495194810927   10.32349691591686    1.95056717278187
C         2.25075675202827    1.73847976343337    6.73486470978783
H         1.50480434110679    1.41840417406286    6.02539643081626
C         0.08555004708769   12.21827658224394    0.99121295615214
H        -0.49617286226938   12.46035178073579    0.11454481439122
C        -0.61767048878743    5.17463195673915   -0.21900028467662
H        -0.06037448623385    5.68934603967574   -0.98702023896391
C         2.93269438542060   12.41345547933140    5.11336157726542
H         2.74526358059245   13.32872673660223    4.55718162385892
H         4.00796027409873   12.25661175814898    5.20635795789067
H         2.51314473404500   12.49351314600554    6.11762215168975
C         2.78472910623809    0.85885007985160    7.65741546477695
H         2.45584260472576   -0.17015581916267    7.67310228883335
C         0.04582707008048    4.67234076287463    0.88451856106535
H         1.11344672932964    4.78961072081982    0.98040738233375
C         5.01203793695215   10.23818627873933    8.10028823853102
H         4.78990707338681   11.09235243230529    7.48130035016189
C        -2.03904401532968    3.84282612407230    1.74856709502150
H        -2.59237031164743    3.33167488228080    2.52212504736504
C        -1.98745592676808    5.01317613352966   -0.34528112232933
H        -2.50229911638426    5.40691719185698   -1.20867326946554
C         3.74016278525303    1.29270671352506    8.56333914671329
H         4.15536556610567    0.60132926004898    9.28225248305735
C         3.63118427807333    3.49672754366020    7.62889551052282
H         3.94951325728382    4.52774671199662    7.59845659884281
C         5.84137105651301   10.34803211156558    9.20031630049265
H         6.27991661348234   11.30314178094875    9.45074653415244
C        -2.69470495855671    4.34387434231378    0.63844798435132
H        -3.76294049055729    4.21495242522828    0.54595026290599
C         4.72217880652034    7.89421417331841    8.56716619068128
H         4.27133501640727    6.94895469764283    8.30552562947838
C         0.51854033354414   12.48736671769232    3.33567576703889
H         0.27128392299580   12.93039211667274    4.28886227819477
C         1.14062577612897   11.32568507797923    0.90070592402276
H         1.38787519027516   10.87413920994075   -0.04820763582955
C         4.16315734044284    2.61234083884599    8.54724010192250
H         4.90887544529850    2.94908895237029    9.25257468429954
C        -0.19685547214577    2.05727840011375    3.28257706314497
H        -0.71578645236515    1.59969202142906    2.44373899816419
H        -0.77699383358460    1.92051978573931    4.19740580219628
H         0.77313524893824    1.57948458588608    3.42048980171032
C         5.55117722973596    8.01018486929555    9.66604860618044
H         5.76116926469826    7.14526864074658   10.27828397174052
C         6.11291914511315    9.23674777325362    9.98334371852813
H         6.76222558063322    9.32733311570582   10.84208279475974
C        -0.22108311680800   12.79978225771262    2.20937295744022
H        -1.04331625200150   13.49566170205171    2.28659341677479

