79
CSD_code = YIVSAX | q = 0 | S = 0 | Stoichiometry = C20H48N6P4Ru | MND = 6
Ru       11.09848799061992    0.00036786733676   -0.00065162999030
P        11.23285953944628    0.99135067514785   -2.08934509536978
P         8.85177344887187    0.51196577997379   -0.21408224480657
N        10.78841477018298   -1.90827089644288   -0.87216397420055
N         9.77840493900073   -2.47122682583573   -1.03092904871132
N         8.85966704382979   -3.11627271527862   -1.24045878288246
C         9.53189863728065    1.40072384118396   -2.72357379587217
C         8.49429298110917    0.52784149051952   -2.02914600912253
C         7.48823263208469   -0.55157897693899    0.43615135817139
C         6.06043539894733   -0.10894744814206    0.13733538761072
C         8.30697570929003    2.22342136134701    0.21471668289840
C         8.18892033419519    2.45839217390488    1.71272621848366
C        11.97490498756931    0.16908136237726   -3.57052424126396
C        11.23569916922876   -1.09093907279549   -4.00224755135723
C        12.03020237291231    2.65929140528339   -2.14875636121759
C        12.04577588108856    3.38933779852095   -3.48645361331940
H         9.49405044283268    1.27577597365675   -3.80960901722273
H         9.33987563241814    2.45303381739619   -2.49073228227672
H         7.48144800496566    0.89511404799005   -2.22131769413363
H         8.56133407961519   -0.50805852948772   -2.37768329730393
H         7.64125623715169   -0.62071903717388    1.51936601915164
H         7.65357326181336   -1.54910920761726    0.01414726117632
H         5.36574531629081   -0.82034869988193    0.58097192563834
H         5.87302335099588   -0.08767175582226   -0.93279100344157
H         5.84628495052389    0.87336931886493    0.55130355307455
H         7.36095438039793    2.42830604550344   -0.29694903863844
H         9.07461525334999    2.89225873430940   -0.18515016040382
H         7.90133643410535    3.48972011124347    1.91186883842655
H         9.15202434698772    2.27403361381203    2.17921419615799
H         7.44527745936978    1.80378936710322    2.16325298827481
H        13.00947214166123   -0.07305246007566   -3.30891884532561
H        11.98576320418522    0.89253265813392   -4.39049175713783
H        11.79503045255184   -1.60787487669931   -4.78042091992921
H        10.24998995609276   -0.85287297462797   -4.39645556827427
H        11.10884351025173   -1.76649457516958   -3.15987501633872
H        13.05034804569990    2.54640533116851   -1.77135663063191
H        11.48467863310957    3.25408197946262   -1.40805983098524
H        12.35382500605339    4.42115955527892   -3.32677363108498
H        11.06121622590105    3.39860364405877   -3.94916116173465
H        12.75246408683511    2.93781371445495   -4.17826186411066
P        10.96330482914417   -0.99061850417057    2.08899450422964
P        13.34433044327566   -0.51228860148803    0.21435201407047
N        11.40755426024791    1.90849726573942    0.87217203018239
C        12.66417339679961   -1.39989922996958    2.72377847101530
C        10.22150231739424   -0.16863730444713    3.57048532883887
C        10.16634163676687   -2.65873614475301    2.14930376481809
C        13.70202829526868   -0.52739246524076    2.02929845713191
C        14.70773025143715    0.55096125086376   -0.43674801006468
C        13.88844377984699   -2.22395220356853   -0.21440326533173
N        12.41764567342908    2.47107605703579    1.03193254343668
H        12.70201850941928   -1.27454568423010    3.80976888059343
H        12.85625608803795   -2.45230233942214    2.49138305453752
C        10.96024855666655    1.09181674403109    4.00176675540829
H         9.18675019837136    0.07298002709978    3.30916452988754
H        10.21119429761924   -0.89188956194063    4.39065513581946
C        10.15103504423911   -3.38869808350886    3.48707888314367
H         9.14611756179123   -2.54606618606587    1.77206861392480
H        10.71176023863578   -3.25363830196523    1.40862048912529
H        14.71484869839829   -0.89475276215492    2.22140281372357
H        13.63514477814621    0.50864781736709    2.37743846074562
C        16.13550367264477    0.10763053464314   -0.13887723194874
H        14.55419490854720    0.62043262654345   -1.51987614791046
H        14.54300448437925    1.54846170289124   -0.01441731822941
C        14.00566993643641   -2.45957584408955   -1.71238338743394
H        14.83465721319618   -2.42882911607184    0.29690079242340
H        13.12081297991477   -2.89239971117447    0.18612119874829
N        13.33624782369801    3.11613745921644    1.24223718677394
H        10.40093327202548    1.60868146881282    4.78000210478135
H        11.94619286217416    0.85430456536109    4.39571521312953
H        11.08653994357307    1.76726877111357    3.15923455812227
H         9.84302186294712   -4.42057112317853    3.32762383427442
H        11.13567321409749   -3.39785042267097    3.94961311210736
H         9.44446043162942   -2.93713506527420    4.17896847029473
H        16.83024900865896    0.81894421469235   -0.58256721048893
H        16.32347827895308    0.08577814895656    0.93113778663132
H        16.34904092965256   -0.87458398734011   -0.55340538219318
H        14.29293982906546   -3.49105145564723   -1.91121660058124
H        13.04236260262033   -2.27522488152501   -2.17846545875454
H        14.74921164203872   -1.80531329050943   -2.16357333696152

