81
CSD_code = YIVVII | q = 0 | S = 0 | Stoichiometry = C31H40BMoN7O | MND = 6
Mo        0.55992581514831    3.00904810348785    2.47791991417297
O        -0.97086084809181    2.42971740103642    2.71614955132792
N         1.55603784218801    2.40819668792926    3.79751601935490
N         2.33370410311879    4.05838147105572    1.54419907050224
N         2.71548809593199    3.96193909690710    0.26533877872107
N        -0.19339230682826    3.63176959010320    0.42369125602507
N         0.48844171900080    3.56838638833583   -0.72539814952569
N         1.42945017621316    1.51692062968593    1.12854592024804
N         1.90611707658336    1.67613870102226   -0.10576357475632
B         1.94014475152579    3.08599868625535   -0.72048218778220
C         3.21310051076954    4.84551019871303    2.15588546069619
C         4.18682000523936    5.26922894961317    1.25545531881682
C         3.82736459869961    4.67985498318160    0.06044162266528
C        -1.44260609839877    3.95903921678721    0.12660502395885
C        -1.57782877254317    4.12165788976828   -1.25166177250433
C        -0.32038261576832    3.85955082405752   -1.75450276484894
C         1.44415790444225    0.21939946090438    1.40763715561195
C         1.95391515098628   -0.48528321457410    0.31887399953948
C         2.23459488882384    0.48607953295461   -0.62268229676244
C         0.08791879981898    5.12356041472002    2.99577744278173
C        -0.26251516869489    5.56583006184288    4.43470635826885
C         0.86237466966488    5.22360037284638    5.42169955973620
C        -1.52907611053933    4.82450264246519    4.86790404367865
C        -0.45185368176067    7.08097645475624    4.44676665141494
C         0.61000129872103    7.91465835527042    4.09807415678508
C         0.48193386841749    9.29033026310172    4.09424978944358
C        -0.72126309115487    9.87971810080645    4.44179226210964
C        -1.78464718285089    9.07101742862290    4.79479712564920
C        -1.65002349479551    7.69221063680804    4.79873389733482
C         2.17156764744017    1.68766132032189    4.74936186754112
C         3.56698109078650    1.43040843742023    4.68531016079737
C         4.18367409083314    0.71264986918183    5.69355769158122
C         3.46530932231122    0.23103103317655    6.77280941328204
C         2.09718200295500    0.43119820281608    6.82255245563999
C         1.43479969662191    1.12962685721891    5.82970714630938
C         4.36883929819268    1.90633625189725    3.49824938531080
C         5.48005313215719    2.86705396544668    3.92532407216379
C         4.94659514657601    0.72365722120295    2.71676827251978
C        -0.06829743775395    1.25616914668379    5.86500775406902
C        -0.71241301100745   -0.12541111032786    5.71250411633603
C        -0.55365823308085    1.93407538595346    7.14754595977134
H         2.42121233286171    3.08999785550599   -1.79893763258770
H         3.12568208654293    5.05201178450884    3.20611531166164
H         5.02406247836680    5.90781722432264    1.44659814781485
H         4.28747232457069    4.72864346179418   -0.90559216115216
H        -2.18223218080346    4.04803886539622    0.90000603490214
H        -2.45943281315823    4.38737860792872   -1.79712186458659
H         0.04185164193838    3.86217011358172   -2.76271918507109
H         1.10454299613536   -0.13692619556238    2.36435077457476
H         2.09743947215656   -1.54227158024208    0.23105573925415
H         2.64188107849493    0.40050194697796   -1.60971116005760
H        -0.79873823986073    5.39243743956245    2.40015285787966
H         0.86621517695806    5.81011600052003    2.63233729306401
H         0.57829637973316    5.52303905718023    6.42973748226742
H         1.04968392794325    4.15170534939219    5.40632783554302
H         1.78501597080722    5.74128069211797    5.16996246914401
H        -1.77347194505570    5.02815806521952    5.90865322274430
H        -2.37431264022537    5.10078244959271    4.24087004297406
H        -1.36506288910302    3.75540611809304    4.74322494715721
H         1.56418969340650    7.48883564309079    3.82152753330004
H         1.32685310111529    9.90626572757014    3.81948367498756
H        -0.82548071524709   10.95487921840646    4.43953502184735
H        -2.73057828463107    9.51365008346538    5.07351508105979
H        -2.50211709279727    7.09953809584761    5.08830886865261
H         5.24642128322569    0.52424541311937    5.64049658648688
H         3.96535951888526   -0.31497532547772    7.55939512928938
H         1.53529358368259    0.02002964034312    7.64849772050006
H         3.68068700269598    2.44125535214749    2.83569690055333
H         5.06759453174491    3.68551588214650    4.51059513041105
H         6.22284241976895    2.35460857020911    4.53202578704065
H         5.97818724557502    3.28151812781210    3.05060609362422
H         4.15039978867810    0.04737406555714    2.41125549169089
H         5.46170096795635    1.07780590231371    1.82499906879140
H         5.65622842491060    0.16586911254941    3.32331242203536
H        -0.37362753191090    1.85748570570375    5.00024136697483
H        -0.39167844562573   -0.58731502581748    4.78126231166054
H        -0.43933451849720   -0.78063697114055    6.53738504216165
H        -1.79513218212718   -0.02788976876787    5.68971136360411
H        -0.06770406741891    2.89751483793486    7.27673978292375
H        -1.62846439998036    2.09256344335067    7.09992943661922
H        -0.33752013160731    1.31987910423019    8.01920210226214

