36
CSD_code = YIVWAC | q = 0 | S = 0 | Stoichiometry = C14H18AuClN2 | MND = 2
Au        8.32182556578660   -0.62522758708720    1.27717506766620
Cl        8.67570060186774   -2.84435058088125    1.13972345979872
N         8.83737690326750    2.40479089471229    1.53129690707142
N         6.75051500180311    1.88652135219942    1.50891683143226
C         7.98498804700824    1.36219454386362    1.43171502885648
C         6.81586634645279    3.24155856817074    1.66452728050315
H         5.94300823343214    3.85379698032172    1.75557941179483
C         8.12861478658634    3.56809606651974    1.67525472760762
H         8.57875743965562    4.53152727814655    1.77207112716994
C        10.30112177394099    2.29792960695226    1.48480338659617
C        10.71012803305344    1.66999401046270    0.15002796767983
H        10.31115027498988    0.66262944123701    0.06112018310114
H        11.79303904221539    1.61947231978477    0.08348306449529
H        10.33728980090753    2.26645257309549   -0.68022850139035
C        10.77264531868763    1.43932767573523    2.66122361134845
H        10.43499216070461    1.86733051590276    3.60303158665283
H        11.85766186327971    1.39052587474955    2.66999917856264
H        10.38202454999950    0.42790240790039    2.57891783768582
C        10.93878475845064    3.68433794568667    1.59563335506535
H        10.63252183770299    4.32806218884733    0.77402088127752
H        12.01896687036386    3.57567313209276    1.54875712985717
H        10.69252170862730    4.15960157580722    2.54251604433950
C         5.51191609953933    1.14513799562593    1.49802244358570
H         5.73344516217606    0.13767488999959    1.13303447916283
H         4.81413666735490    1.63349581057889    0.81174496319208
C         4.92631506913078    1.07858425206352    2.88772067639607
C         3.76983690032961    1.77346313211117    3.21066950010273
H         3.25856693416628    2.35108181528326    2.45283376551554
C         3.25946342443564    1.72046892674317    4.49677640292173
H         2.35497889296605    2.25958060875422    4.73759258765355
C         3.90636003841844    0.97852895406879    5.46942651772788
H         3.50775129336949    0.93737296205973    6.47197942930031
C         5.06321201078763    0.28499626983425    5.15303842801400
H         5.56837914705195   -0.29959239446494    5.90720277485741
C         5.57149983367090    0.33465118990387    3.86819406861996
H         6.46923760784275   -0.21189119678713    3.61369839576941

