86
CSD_code = YIVXOR | q = 0 | S = 0 | Stoichiometry = C42H37ClO3P2Ru | MND = 7
Ru        4.04217534072848    8.04295191651170   10.05216434852756
P         4.97907863497264    7.10831538770222   11.97563848928302
P         1.97995831313054    7.03296000524550    9.61469696847805
Cl        2.62634328104754    9.39212890795094   11.43385837167310
O         5.56244057789514    6.06621809103283    8.40802232904458
O         4.01537946215321    8.33778995539929    6.43918803590237
O         2.45990234840048    9.95830553832425    6.54191140154512
C         4.97632144408574    6.83983634750855    9.02354315028170
C         5.49573386607166    9.79332256964735   10.15503782001399
H         4.92469188282145   10.53487953712752   10.71060661081393
H         6.54649270950813    9.73812704118068   10.42273662751406
C         5.12556153364736    9.51176299972165    8.84307389984652
H         5.85226051527347    9.12194343423153    8.12687556576450
C         3.76321156125425    9.59240247558723    8.44799963663139
H         3.13756126771617   10.39020053808602    8.84878596123569
C         3.45119738354222    9.20941792431184    7.06856708639652
C         2.12182126020607    9.67581588628012    5.19561985136477
H         2.93805587060832    9.97085805245778    4.53144378439241
H         1.22643605484702   10.25237009250074    4.97869845997151
H         1.93184330833412    8.60825059187513    5.06682508027203
C         6.76132202485164    7.52148544076169   12.13378024471555
C         7.58576008748082    7.13622821878595   11.07792565472317
H         7.15432672179159    6.62945505105341   10.22633066608671
C         8.94214056942968    7.39313521149576   11.11341806157125
H         9.56855335114849    7.08969485994374   10.28751370559778
C         9.49668422251762    8.04147767992334   12.20619307049223
H        10.55610734600400    8.24889583940698   12.23365386152447
C         8.68674025211343    8.41850710955812   13.26242968172127
H         9.11338329956166    8.91787740727310   14.12028970328963
C         7.32634555215855    8.15825181159606   13.23226494720862
H         6.71157422361572    8.45321397824600   14.07003004417128
C         4.36507813255707    7.56417686126177   13.62955486368004
C         4.32943160321191    8.92031962566157   13.94912449925999
H         4.68193586170921    9.64602344891857   13.22937520910267
C         3.83533270881377    9.33424205858523   15.17137785847054
H         3.80163234345836   10.38735136482060   15.40828392551090
C         3.37631195145983    8.40037762480988   16.08600240698883
H         2.98550285713537    8.72387853903082   17.03959222813276
C         3.41528656345637    7.05177766409255   15.77524883317224
H         3.06078011407320    6.32171317823088   16.48910154504620
C         3.90089826579350    6.63068593620039   14.54961270646284
H         3.91658321933710    5.57602356185844   14.31026749257016
C         5.14967173937310    5.29284413381966   12.07872427668685
C         6.03286904033401    4.70773491416790   12.98348109273435
H         6.61551104262955    5.33340278662712   13.64594250371632
C         6.16071628311234    3.33265362119956   13.03002405821134
H         6.84600926972455    2.88138254594505   13.73267539907089
C         5.41656940799173    2.53223888290872   12.17595943668892
H         5.52534064561174    1.45842789035245   12.21391466024166
C         4.53905631167445    3.10974389579328   11.27429593069987
H         3.95930349274902    2.49460991227914   10.60198256224613
C         4.40745173872369    4.48610385419211   11.22765885436762
H         3.72863151386853    4.95068095216136   10.52181293397465
C         0.86156740495412    6.68242403624026   11.01232230254385
C         1.42354947097467    6.34992838827804   12.23759143233880
H         2.50382561157539    6.33088412906713   12.32730237746132
C         0.62146656354400    6.07066807090593   13.32693151808470
H         1.07139915135056    5.83069640898674   14.27895819939730
C        -0.75679005441490    6.11409732038041   13.19510124214329
H        -1.38888750934796    5.90576151654753   14.04586840412874
C        -1.32461885429524    6.43052665484935   11.97169545522932
H        -2.39950064558436    6.46215857176324   11.86706570240230
C        -0.52339142803252    6.71430799903947   10.88036172175267
H        -0.97393264247284    6.96313082682623    9.93014106721414
C         2.03869741937992    5.42113208596711    8.75747142514314
C         1.46313164133861    4.26654541403888    9.27656611167734
H         0.92555341374373    4.30456907954069   10.21386291691145
C         1.58612416383698    3.06602245135798    8.59791961387775
H         1.13718096979490    2.17252223529784    9.00788709941593
C         2.27995822908825    3.00837647345693    7.40127219519733
H         2.37625020829098    2.06893707255639    6.87687210114387
C         2.85181137645174    4.15748509294376    6.87720385943562
H         3.39311149675420    4.11774476190647    5.94380402150107
C         2.73579265853173    5.35835924662253    7.55103491843978
H         3.18275758633268    6.25598008810628    7.14234329269465
C         0.84445870599938    7.97113119134652    8.52621879535300
C         0.33276962345639    7.44920945981823    7.34235075161486
H         0.62146709846415    6.46398386948263    7.00673806178255
C        -0.55895746939311    8.18902653644043    6.58478851484807
H        -0.95054430228844    7.77181882145493    5.66762139840881
C        -0.94839752054744    9.45226016925920    6.99443727801696
H        -1.64248693372017   10.02554945676303    6.39685969045729
C        -0.44698489483709    9.97444886011406    8.17502300253452
H        -0.74787888139532   10.95816274754611    8.50428631165955
C         0.43867894253850    9.23926860788342    8.93879255247835
H         0.81801102620121    9.64520920066272    9.86587026709523

