62
CSD_code = YIVYAE | q = 0 | S = 0 | Stoichiometry = C26H31IN2PdS | MND = 4
I        -2.42191053265380    2.74202400163077   10.00234860411421
Pd       -1.72283174762720    0.32761265525076   10.60291382957174
S        -1.16430442947195   -1.97335937936527   10.70609054363725
N        -3.93812826869382   -0.60130303503073   10.54052031020135
N         0.40098015782317    0.41319890396726   12.39829912336021
C        -4.97994728510930    0.00717656815109    9.99061562371833
H        -4.91736344324295    1.08555993582284    9.91385154947158
C        -6.09281778536006   -0.67845637498976    9.53056134620099
H        -6.91444859618590   -0.14035936070476    9.08687493222912
C        -6.11604761944121   -2.05799438024900    9.65076863866287
H        -6.96039180428096   -2.63214531211824    9.29924866466629
C        -5.03162393440807   -2.69408725082767   10.23232752765415
H        -5.01639192145196   -3.76735157162610   10.35161965958680
C        -3.95707894282690   -1.92869570263436   10.67051819608510
C        -2.77451528771960   -2.57069781086453   11.32251786173907
H        -2.80114856335332   -3.65683154049597   11.23544824169953
H        -2.73476625801408   -2.30021698854116   12.38393007017072
C        -1.09363745007794   -2.41571347585265    8.89582350059638
C        -1.99651825460861   -1.51082605683202    8.06385792745801
H        -1.73300550498333   -1.59451298809567    7.00970191413969
H        -1.87511534121464   -0.45193451248810    8.36382089379354
H        -3.04567694630870   -1.78892423787580    8.16850731021428
C        -1.45116450156268   -3.88326273846319    8.71712422272584
H        -1.23695159870320   -4.18728623422433    7.69377506703094
H        -2.50897720613907   -4.06053996209043    8.90359027023594
H        -0.86420573821858   -4.50699055137908    9.38905946785012
C         0.37374533363998   -2.16804568239445    8.54933033437529
H         0.54648894334881   -2.33951876323436    7.48881583743596
H         1.01819001817089   -2.83507232120792    9.11867501865337
H         0.65294034080603   -1.13988676072565    8.78650241406535
C         0.08992941463896    0.82379910831645   11.26576142262547
C         0.99522289773968    1.59393512570632   10.42557932307596
C         2.07692801056871    2.27035589847418   10.99070148246462
H         2.21565475151577    2.23118493219022   12.06069416018844
C         2.94133840283407    2.98902623694026   10.19080666153669
H         3.76658412104255    3.52133322814643   10.64225690925247
C         2.76527822040356    3.04310611606385    8.81235567137341
C         1.69509455216061    2.35504847529135    8.24959578982553
H         1.54365113690038    2.39070512412634    7.18027485137085
C         0.81683213885422    1.64641790152266    9.04181276177580
H        -0.03322013738558    1.13667463915048    8.58593775955868
C         3.68639366908051    3.84886489532401    7.95068264994210
H         4.64771344377515    3.99653485733231    8.43696908157771
H         3.24765546912123    4.82906421178747    7.76141952939501
H         3.84430577467818    3.36309568385597    6.99003648717977
C        -0.25380891343324   -0.41646276068880   13.28748399747582
C         0.43368467900802   -1.58426879994699   13.66101084334798
C        -0.15457548993402   -2.45875086540389   14.55668719189074
H         0.36769950455672   -3.36314263584008   14.83452675319213
C        -1.39833285565057   -2.18345188862686   15.10080861895359
H        -1.84841847482515   -2.87138405196699   15.80157233274670
C        -2.05855676015516   -1.02015573361194   14.75034449534617
H        -3.02610902540714   -0.80009274218509   15.18090971717621
C        -1.50852669987115   -0.12125358766221   13.84471708322146
C         1.76615392469828   -1.87241874871857   13.04161446996326
H         2.23957349145648   -2.72688432979006   13.51821700708491
H         2.41595683399616   -1.00317173064786   13.12792585018758
H         1.64618818919025   -2.08352727819376   11.97780902125892
C        -2.25973679065431    1.12891823732584   13.48503788695985
H        -1.57652602801371    1.93347615702129   13.19901631548576
H        -2.85976527804431    1.46578723125264   14.32918557321678
H        -2.95533800497888    0.93077802092073   12.64740940001111

