86
CSD_code = YIVZAF | q = 0 | S = 0 | Stoichiometry = C43H29ClF10NPZr | MND = 13
Zr        6.51992972410118    5.98966873461730   10.23939134463966
Cl        5.06683085765155    4.44867615396811    9.16517525413028
N         6.99070141302337    4.42598985235173   11.58979642044745
C         8.00749307103947    5.14014613016877   11.84780591689003
C         9.20866865215874    5.07137312607698   12.57086337769553
C        10.30348809087857    4.34653491337982   12.12236869096319
C        10.22618891620470    3.43800092284774   11.06401181340904
C        10.24554795150093    2.65133217758654   10.14007937742425
C         6.63210832802405    3.11705622322748   12.18178178038585
C         7.42957119862073    2.81225807616510   13.44820365519652
H         8.47147645554655    2.61377405053320   13.21889912209681
H         7.01505851305937    1.93040174129150   13.92899033680326
H         7.37155622132646    3.64553107342450   14.14745209704990
C         6.88077625290768    2.05711271864517   11.10519779222267
H         7.94262340031485    1.99102413038400   10.88109140739981
H         6.33272378483093    2.31551814554057   10.19954976454543
H         6.53914411337841    1.08733489232933   11.45737037565156
C         5.13482141460113    3.18346066723866   12.49968627680758
H         4.78545601022778    2.20850015574036   12.83033738906980
H         4.58078557521259    3.46585678345790   11.60419788642316
H         4.94828058032051    3.90428872007779   13.29492955892810
C         7.02551319433677    6.83470638812655    7.93096457091818
H         6.26707850344094    7.12248075791797    7.21095876130474
C         7.71474643858551    7.70073675987641    8.80828201531614
H         7.60723640993786    8.77688624738161    8.85447552414149
C         8.71223021271487    6.95526340858478    9.46985228286421
H         9.47386486326310    7.36719005818461   10.11900544025522
C         8.66674035677356    5.62885433470008    8.97169425053931
H         9.38928733638533    4.84943485932467    9.17677218860313
C         7.63035882181762    5.56056075454252    8.01926619514911
H         7.40438803418037    4.71263662910397    7.38463148550500
C         4.52907510990773    6.48096872348817   11.71767327362951
H         3.90163510527808    5.74552543879973   12.20118966893005
C         4.24398888553043    7.10122841958037   10.48241786571674
H         3.38800190342847    6.88873248563395    9.85372950075218
C         5.17971886991616    8.13340084884165   10.28466674800022
H         5.13387542581425    8.87704220833598    9.49817990374517
C         6.05540279093276    8.15097054301787   11.39617362999502
H         6.78786147566308    8.92193933058608   11.60373631030771
C         5.64636604607384    7.13106558607757   12.28838539125721
H         6.02596769335171    6.97512556334608   13.29226690396474
P        11.96042599964071    4.89895693372681   12.63432512129176
C         9.39008175346799    6.02414067309540   13.67512302504804
C         8.96706233022896    7.34558953822354   13.56437795710038
H         8.52569383277641    7.67913873977057   12.63346312119273
C         9.15007825849075    8.22421731804752   14.61525823003251
H         8.82700649476186    9.25003267154008   14.51919997370942
C         9.75438504283614    7.79503009037784   15.78609463439632
H         9.89703591381504    8.48385195818260   16.60469300030992
C        10.17902829120177    6.48200183874762   15.90191713948709
H        10.64984257817363    6.14396719578125   16.81276374565665
C         9.99965968178540    5.59833461787430   14.85361727933822
H        10.29963402976232    4.56384775296284   14.95414622896302
C        12.81241344771070    3.32176610395192   13.07050223539040
C        14.20499547442120    3.34653170825284   13.04536748382856
F        14.80057983708952    4.46132205957078   12.60119267806425
C        14.97841440393998    2.26869243270034   13.44454898874040
F        16.31044932751083    2.32361734056789   13.38819884670514
C        14.34669539309385    1.12170502764916   13.92149780363114
F        15.06865329571285    0.07246871863506   14.31414215761881
C        12.95928889811624    1.08542355648728   14.00052850586018
F        12.34693600391264   -0.00115675123986   14.47930226899097
C        12.21038676052185    2.18318585065430   13.58781716770700
F        10.88015890769021    2.12151126405037   13.71612646341943
C        12.55294508697143    5.05570874351455   10.88462029836112
C        13.06012874473934    4.09391399035862   10.01814341686117
F        13.35200457934238    2.85916012703960   10.44914407619081
C        13.28638799869961    4.37387626277831    8.67383597056848
F        13.76966504216834    3.42296659751444    7.87061254525794
C        12.99947040891495    5.63383779831597    8.16112302333226
F        13.20838402589218    5.89857058355643    6.87151230613844
C        12.48503796440449    6.61534642278627    9.00619753537643
F        12.19399164339921    7.82865743071177    8.53147788436909
C        12.27463913790127    6.30546806334689   10.33924170866825
F        11.74588538116307    7.22950217256291   11.15900891276399
C        10.18648292268368    1.80841937857479    9.01295334089921
C        11.24661682645722    0.95141742150511    8.70894363459318
H        12.10839600696058    0.91731519549494    9.35848781719386
C        11.18720355399076    0.15684270545005    7.58134177328530
H        12.01184484049523   -0.49997140932136    7.34770330490143
C        10.07837896143139    0.20138462109822    6.75095296118829
H        10.03767927566466   -0.42188745297903    5.87030342207443
C         9.02144716965311    1.04708055550201    7.05149718517395
H         8.15593772771551    1.08116352494722    6.40632880382121
C         9.06859153325872    1.84979823244928    8.17311895570156
H         8.24840720843873    2.51396366221161    8.41134551742653

