82
CSD_code = YIWBOW | q = 0 | S = 0 | Stoichiometry = C35H38N4O4Pd | MND = 4
Pd        1.43104696370325    3.31000633032927    1.12541922131558
O        -3.95352044725394    4.97472086597221    5.15928720160780
O         4.87409889001393    0.16617993734641   -1.78271739740082
O        -1.88892663394532    6.39912629084543   -3.27411423926796
N        -0.07640657602511    5.81222445793684    1.95406967438519
O         3.33434298260273    1.04599797655580    6.87916245311452
N         0.81571833866191    4.84651836589966    3.68663837288020
C        -0.56433704696275    6.62219540782971    3.06860181399777
H        -1.64347163428224    6.48618892984970    3.19547487977494
H        -0.35368947023365    7.67975070352140    2.89070151320793
N        -0.19052660393402    2.12915921558022   -0.80048685056655
N        -1.71256842166248    2.97437050884264    0.49136909265678
C        -2.20067247003638    6.84552213955544   -0.89062398178643
H        -3.13718627825147    7.36234806882835   -1.03186935067178
C        -0.52206254792479    6.02457931317995    0.64559125943223
C         2.44719943369446    1.73368977667844    4.82322669723471
H         2.73881348804966    0.76794355567809    4.44219316520659
C         1.72708235391452    4.19525064904582    5.83456625527552
H         1.46821624926789    5.15343278137900    6.25735555973511
C         5.17049757263446   -0.66434989600781   -2.87276633999352
H         4.56958281037331   -1.58101654334533   -2.85926593943930
H         6.22343712827938   -0.92548402733126   -2.77066815874103
H         5.01931888824834   -0.14927143374943   -3.82852546646736
C        -3.07851738579407    7.08242449639344   -3.57955047283943
H        -3.94945912017005    6.60716202522166   -3.11462400607367
H        -3.17923899058811    7.03095083463964   -4.66249100355440
H        -3.03104317435279    8.13183701244796   -3.27082739416678
C         3.36778642038838    1.45017673024667   -0.53271901048896
H         4.21887215129637    1.64114105190125    0.10662818922267
C        -3.47642960090369    4.24089333223054    1.57266454033457
H        -3.92694068893184    4.47217373134124    0.62011080708475
C         3.59188271907421    0.63595126637929   -1.64813479790974
C        -2.40222435775712    2.84054307292085   -0.79137463966747
H        -2.61841680097785    3.82959548488314   -1.21039063312443
H        -3.33942077567237    2.29209458795354   -0.66458809676444
C         1.29387279218824    0.87589404979519   -2.27304753721630
H         0.48651964051528    0.65606106609443   -2.95878364357658
C        -3.48904984733666    4.49173650126135    3.96605693171099
C         1.08799637266674    1.65598313258569   -1.15043295531153
C         1.82402426115216    2.64734281409152    4.00523213797211
H         1.65047790208183    2.40419958122545    2.93664326143846
C         0.20347301127835    6.04694748912123    4.25502622634983
H         0.97838700838674    6.73332879543772    4.61379026436501
H        -0.45652373275952    5.78358877849222    5.08484196046442
C        -2.32822944444079    3.45898519591923    1.63613415890409
C        -2.35779760700138    3.67491760342223    4.03567196159170
H        -1.94575720988095    3.44600095517535    5.00619263302195
C         0.22318157301587    5.56859063389441   -0.45020111259646
H         1.20742433743605    5.11237615399812   -0.29738525325714
C         2.12427385934623    1.99094950432405   -0.24932555248923
C        -1.71798312815558    6.69032925116980    0.39942227522921
H        -2.30500374488521    7.08699437922434    1.21241609407210
C        -1.37658839950097    2.08519752519939   -1.64229524618075
H        -1.67613704020802    1.04772893958339   -1.83116581371049
H        -1.18303326782675    2.57689104185444   -2.59872018297174
C        -1.79167250322450    3.15882357575498    2.89368729501917
H        -0.93347812525059    2.50390645916950    2.96196491752362
C        -4.05236619017088    4.75357582023827    2.72415969233484
H        -4.93937663678756    5.36081917638179    2.63133206724054
C        -5.13403911065942    5.73713309286174    5.15673624624254
H        -5.01557130830974    6.66520274335418    4.58631505968726
H        -5.33051619927754    5.98164325333438    6.19942318052321
H        -5.97930836857217    5.16992589640317    4.75345115241496
C         3.66603879909133    1.30286991135633    8.22028615691858
H         4.35336468868701    2.15081334330163    8.31018934096618
H         4.15977733175987    0.40163005598239    8.58057024303163
H         2.77448426341713    1.49249007757750    8.82796965291163
C        -1.49033089527143    6.33683064867592   -1.96925527875165
C         0.66353949430802    4.76547976098415    2.36002250217228
C         2.71909054362417    2.02825891795974    6.16160879782332
C         1.45827226719331    3.90594822966020    4.50127210949595
C         2.35003674447806    3.27074831981681    6.65781305385883
H         2.54210414962717    3.54288802912431    7.68385369770113
C         2.55758152426208    0.36443866370905   -2.53099006055338
H         2.70745746506801   -0.24005030891558   -3.41231611857216
C        -0.41492965813011    2.60292407598133    0.41666165492633
C        -0.26320865007545    5.71295138812793   -1.73035525541322
H         0.30472115638498    5.35594872819290   -2.57514498023044
C         3.33940461082488    4.11072847448238    1.34680150795079
H         3.98542962840821    3.39538397553246    1.87053602985564
H         3.35528134962586    5.04423532248923    1.92639044658919
H         3.80174892843160    4.32188197564977    0.37362336298917

