99
CSD_code = YIWBEM | q = 0 | S = 0 | Stoichiometry = C42H52N4Pd | MND = 2
C         4.41666213805225    3.35212210475793    7.98253903006114
C         3.91943836686598    4.74938010289358    6.17585549335919
H         4.30380808104214    5.77491349420718    6.19153008442155
H         3.02414471879972    4.72921994824642    5.54848094744207
C         4.98833191573318    3.74767583702311    5.74917118972572
H         4.61381574370510    3.02029593277428    5.01782253356651
H         5.86361989445815    4.23857854602574    5.32649593836969
C         6.07978090469664    1.88130260623429    7.02816802498741
C         5.46852525407678    0.69762719434550    7.45742012615660
H         4.41769069993328    0.71648615034646    7.76942484693123
C         6.16583899954472   -0.49573276752714    7.45355980142624
H         5.68450665596763   -1.40281223833481    7.78587870187934
C         7.47280584736195   -0.52218625997826    7.00023110873974
H         8.01830799258145   -1.45345761702029    6.96819680010055
C         8.08202629797287    0.64805764053586    6.59115939848450
H         9.10589231175151    0.61349646047530    6.25039017681570
C         7.41692619353796    1.87053350481476    6.61627937381235
C         8.15475231632666    3.12610945305162    6.20473942389123
H         7.55216381466188    3.99268527112209    6.48960044838492
C         9.49700809045480    3.27588363335756    6.92554186772465
H         9.35474898022327    3.27250797649896    8.00265474632654
H         9.95926721280719    4.21971982512242    6.64247271560325
H        10.18280985020778    2.47463453975228    6.66453819080448
C         8.37732025794696    3.13247652556092    4.68855498002470
H         9.04744492124616    2.32397470424471    4.40597717403395
H         8.82368497379451    4.07342879472378    4.37252521015664
H         7.44114022308986    2.99331764886832    4.15154629723337
C         2.49977491175761    4.88512645867372    8.20514456754556
C         2.54192137334913    6.25704826606234    8.42102314704021
H         3.44020609649465    6.80187032138671    8.16699694051124
C         1.45932524301431    6.92574408520593    8.95881169519189
H         1.50661024941164    7.99213611081394    9.12335003258654
C         0.31782349778953    6.21135112075966    9.27053904723143
H        -0.54783702600937    6.71874827251571    9.67095856849916
C         0.28065225380004    4.84297969342635    9.07474223420660
H        -0.62213241012834    4.31461934897388    9.33300070963353
C         1.35994153690016    4.14020031074873    8.54955610694374
C         1.31307910898628    2.64346490938199    8.35532735058909
H         2.25737373088338    2.22216392326840    8.81828290266626
C         1.27805243383082    2.27802538701499    6.86691365136041
H         0.42030516784968    2.74520950108259    6.38208327943743
H         1.18968315926039    1.19895851150274    6.75501974165895
H         2.17988832234510    2.59349121495528    6.35150112114807
C         0.13961695058681    1.97168344684366    9.06250794311862
H         0.10986562591569    2.27020767830325   10.10653976441920
H         0.26762062097587    0.89109515765600    9.01772180643667
H        -0.81026196599054    2.21798086028031    8.58728433015180
N         3.60179613833075    4.29998152346932    7.53603252217705
N         5.28985074749797    3.05400655493748    7.00939342803429
Pd        4.05613860022817    2.01947273234037    9.64500428388577
C         3.69553665949507    0.68610320601338   11.30684942751066
C         4.19278953199167   -0.71117632454842   13.11350439297487
H         3.80843568346652   -1.73671502194627   13.09781667039779
H         5.08808486354231   -0.69101231825627   13.74087544441792
C         3.12388288121098    0.29050641621750   13.54021212703862
H         3.49838626687411    1.01788351671432   14.27157004472961
H         2.24860095499273   -0.20041415040479   13.96287846186269
C         2.03245085441406    2.15690681391268   12.26121385358152
C         2.64373037489091    3.34054250560071   11.83187552734504
H         3.69457363016487    3.32166290931182   11.51989307557022
C         1.94644624532854    4.53392434360693   11.83572723724172
H         2.42779027705424    5.44098160044346   11.50336084702967
C         0.63949011347680    4.56042957198528   12.28908771645835
H         0.09401259215720    5.49171667563153   12.32110146101755
C         0.03024360723858    3.39021592106410   12.69821099403662
H        -0.99361363831390    3.42481678316918   13.03900395657218
C         0.69531110860639    2.16772219722832   12.67311841613322
C        -0.04254270175684    0.91217325463222   13.08469092616757
H         0.56002208081375    0.04557974762910   12.79983111655240
C        -1.38481500965591    0.76242261408019   12.36390991617842
H        -1.24257422851397    0.76578958722589   11.28679328937719
H        -1.84709225176905   -0.18140200266919   12.64699154815337
H        -2.07059517983670    1.56368857029835   12.62492179147296
C        -0.26507969296799    0.90583182570681   14.60088131491401
H        -0.93518112371313    1.71435172258360   14.88346587287821
H        -0.71146163763746   -0.03510722729200   14.91692628157261
H         0.67111505192453    1.04497069101340   15.13787142171488
C         5.61243302153649   -0.84688819221732   11.08419717930117
C         5.57027237471264   -2.21880622837514   10.86829147571807
H         4.67198240338493   -2.76362419984844   11.12230939755088
C         6.65286445040120   -2.88750690961457   10.33050163998482
H         6.60556971575256   -3.95389594306111   10.16594831586915
C         7.79437369838674   -2.17312152122587   10.01878707579923
H         8.66003123923365   -2.68051728487333    9.61836268036988
C         7.83155802427073   -0.80475545373148   10.21460503463646
H         8.73435212614910   -0.27640121948918    9.95636925529477
C         6.75228194367860   -0.10197310777071   10.73980333702417
C         6.79921776426733    1.39474803868846   10.93410573408854
H         5.85493398616244    1.81611856123922   10.47117054180442
C         6.83425413036851    1.76010421019503   12.42255464750512
H         7.69195287136761    1.29284745330889   12.90747476287188
H         6.92267109007800    2.83918902332293   12.53440106637009
H         5.93229584565763    1.44476222419503   12.93785244726706
C         7.97263571052734    2.06655727547661   10.22692638411079
H         8.00223887640587    1.76813334581141    9.18288998573126
H         7.84474400204886    3.14713826437557   10.27179076104905
H         8.92256294137119    1.82016272805484   10.70195448281926
N         4.51041848182188   -0.26175549576423   11.75333109406126
N         2.82235096502932    0.98418660061535   12.27999976293389

