69
CSD_code = YIWCAK | q = 1 | S = 0 | Stoichiometry = C24H34CoN4O6(1+) | MND = 6
Co        7.75705565132809   21.85057720026368    1.60543831179580
O         7.13961666186708   20.59922247790782    0.38993597802176
O         5.68127884726747   15.39946309856065    1.39243424009995
O         8.73042056591757   25.92528644619322    3.21350291968436
O         9.29113288809646   20.85460576859064    1.87386288513677
O        13.41043440284444   19.71605404986292   -1.55581349636209
O         4.14724653314726   24.23617855930267    2.74186824931708
N         8.47696286193206   22.79427514884462    0.15684119962143
N         7.01568157942736   20.96618327575989    3.08273969310328
N         8.47344001915448   23.21495846380527    2.99940496304486
N         6.03536925611445   22.94803082299679    1.24860677873251
C         6.83329479949825   19.37191560772111    0.67056985460682
C         6.71858492840906   18.45127070872093   -0.39277398738929
H         6.93488282659004   18.80943048613331   -1.38725330738350
C         6.34188754410097   17.14706054748253   -0.19298051767544
H         6.27266966186970   16.49139224437616   -1.04646308926689
C         6.06098213234044   16.66989127583967    1.09764778502799
C         5.55605375111591   14.46594535828450    0.34354061981242
H         4.79596417067679   14.77450187738691   -0.38088741028866
H         5.24323834972526   13.53706558847109    0.81688475295524
H         6.50941156592986   14.30582365893576   -0.16903933465700
C         6.17323370704191   17.54363038026385    2.16021783063401
H         5.96654040318261   17.17427950820885    3.15253910317662
C         6.55115330318346   18.88474982077320    1.97932992069346
C         6.64880295490696   19.73138984332575    3.11273719511143
H         6.37071294975074   19.28848096326940    4.07004439350744
C         7.07184594423064   21.73815253624800    4.30405996468613
H         7.01220248459611   21.09654027190998    5.18967281112766
H         6.22835722329795   22.44070051413397    4.32578178126222
C         8.38447359724774   22.51378182778418    4.28680159909031
H         8.43679725356730   23.19962546390320    5.13824862979245
H         9.21416832269449   21.80520253247806    4.33784357700957
C         9.78350965366798   23.84798202268852    2.79792805555532
H         9.90480135723389   24.06762425911713    1.73651138985235
H        10.57679246721780   23.16485078743176    3.10041150015413
C         9.87489748760708   25.16877999710766    3.56882390145892
H         9.89394047237522   24.99359660992689    4.65242477271306
H        10.79661668110247   25.68863799544710    3.28718887004475
C        10.20911080828785   20.63198168984162    0.99074757307401
C        11.13408692375528   19.58800289586963    1.24097938029596
H        10.99729837890268   19.00601462647237    2.13875623969848
C        12.16374815274082   19.32480655931137    0.38500325805234
H        12.86185813657683   18.52735268717959    0.58532096226959
C        12.34808906917721   20.07878530031554   -0.79338359769019
C        13.66144720401272   20.42735550984310   -2.74492143234671
H        12.82879090126300   20.33660774866629   -3.44965575570093
H        14.55022792050154   19.97220209688540   -3.17783840739556
H        13.85818556256022   21.48552935171145   -2.54451210507848
C        11.46385190411114   21.09277623138163   -1.07292290394665
H        11.56054782898735   21.68744039084230   -1.96789510072356
C        10.39163793029634   21.38783014965203   -0.20003423191849
C         9.50751392496277   22.44125670877505   -0.53548276172445
H         9.74138245078588   23.00086158758607   -1.44265237411972
C         7.65038834452061   23.89706959322458   -0.28066737325836
H         7.85846160952785   24.16953745021356   -1.32099006444357
H         7.84824072243743   24.77134526428762    0.35373330487828
C         6.19771778972098   23.46361497416552   -0.11699165254745
H         5.52087073629340   24.29702821882090   -0.33012254321301
H         5.99455148851445   22.64258966419889   -0.80809500527081
C         4.71822854587854   22.33234206804774    1.45983712006991
H         4.76850958655312   21.69342872492573    2.34235488445770
H         4.45607468298124   21.71296473908531    0.60254672413157
C         3.65075903012116   23.40247992254653    1.70881056801233
H         3.46254422428541   23.99240124384262    0.80209548937982
H         2.71501128630549   22.91760179190811    2.00587245024364
H         7.81994352145978   24.00341897957192    3.03463129353945
H         6.03713485508763   23.75313236255001    1.88247136025676
H         3.45651485033619   24.84285130842555    3.02483692316907
H         8.80541636879970   26.81205216038968    3.57863539403632

