49
CSD_code = YIWCEN | q = 1 | S = 0 | Stoichiometry = C23H16F2MnN4O3(1+) | MND = 6
C         3.38298399069576    4.43686059675031   -0.62240785607165
C         4.43978347731734    4.36780785177875   -2.70399932187966
H         3.96005941594712    4.03125891458413   -3.62919359805732
H         5.52140998928382    4.22934932088597   -2.80596977307725
C         4.08131760972069    5.78286899287171   -2.35389670381905
C         3.08885447921782    6.87293830421233   -0.39631890556400
C         4.28930831019965    6.89389828748340   -3.03980851180931
C         1.77273322330698    2.94400404593523    2.55347810069701
C         2.38016391173048    0.98684777010144   -0.21756922307768
H         3.28337612760791    0.78034867520297    0.34383742955666
C         1.85169722368364    0.01771613738138   -1.05163196101677
H         2.34115992108018   -0.93807378998796   -1.14257248838005
C         0.69116165231786    0.30260710945044   -1.75621988714141
H         0.25360854940859   -0.42377698277342   -2.42226230374862
C         0.09875550300813    1.53828705424903   -1.57464987883079
H        -0.81032839533203    1.77956369383040   -2.09924004736220
C         0.67949109678763    2.46006440495932   -0.70396902583917
C         0.08089247550113    3.75949010637227   -0.38040542236216
C        -1.12551148697724    4.20600512583133   -0.91671212489700
H        -1.63946403278272    3.62726006569460   -1.66559890951249
C        -1.66786167810887    5.39873513545652   -0.47669687531447
H        -2.59995122943079    5.76011057597961   -0.88042825796020
C        -0.99084062896272    6.10573872420963    0.50450836988614
H        -1.38322208268877    7.02745777852548    0.90153115465610
C         4.11029893176098    2.93392677248726    1.51129733975410
C         0.21631633011378    5.61551238894291    0.97066409735069
H         0.76164220064692    6.16415215713096    1.72827732822938
C         2.99899557700954    5.06071072213437    2.16157919990752
C         1.90982107436861    7.55441235381118   -0.68286465987800
C         1.58360236755470    8.74223354793636   -0.05640463049330
H         0.66324035151880    9.24146631625142   -0.31216931271617
C         2.45957714041283    9.27202368337476    0.87746996177961
H         2.21612789778448   10.20052367887278    1.36811550147905
C         3.64604666341698    8.62713013146591    1.18401392296555
H         4.33789479875652    9.02892071358127    1.90604710090344
C         3.95136868067512    7.44288280512378    0.53943128992137
N         3.45430749323642    5.69513538478435   -1.08894890338857
N         3.92372409502741    3.65189426377727   -1.55306269620526
H         4.08099604568033    2.66338052614987   -1.44247665292706
N         1.82484771213730    2.18886159288967   -0.04475355905279
N         0.76306089148753    4.47897176313616    0.53534170850374
O         1.30777663072341    2.47731302177800    3.48343296720255
O         5.12214792822008    2.48242914060823    1.79876121313433
O         3.25576342889494    5.86488742828701    2.93699597598330
F         1.07262698324679    7.01849388944831   -1.59270370859264
F         5.09741988268254    6.80370169334277    0.80060312627484
Mn        2.53590968815243    3.68908699060379    1.11147433709537
H         3.98817502704977    7.85984433465152   -2.67754010372569
H         4.77673475691414    6.86203680044954   -3.99578482258072

