48
CSD_code = YIWCOX | q = 1 | S = 0 | Stoichiometry = C23H17MnN3O4(1+) | MND = 6
Mn       11.04314082732240    5.11933040747956    2.97691346795000
N        12.73397254671877    3.32777624051758    4.85622441468391
N        12.52481874988621    6.38131553748571    2.42590823427334
N        12.00695023068118    3.97481903693376    1.61147478911467
O        12.93923282303817    5.46974851306944    5.09298121488083
O         9.28610486965683    6.19081492900467    0.88405389532299
O         8.89127482852455    3.21227655849910    3.54960937287483
O         9.77245172205327    6.87221945203066    4.96041780138734
C        12.33637395260972    4.51508756571728    4.41162425007478
C        13.79067828585731    4.92433658897366    6.11000584573431
H        13.43690870573537    5.27314394759393    7.08532012212795
H        14.80998416343925    5.29051739311092    5.95294188200045
C        13.65065223993369    3.44283495790715    5.92747710711384
C        14.21079530974778    2.44027974831481    6.58065915434865
H        13.99750094640872    1.41647481835039    6.33232613673524
H        14.89357704242094    2.62339685288103    7.38860706245123
C        12.32403821979759    2.05723059279792    4.35910966405759
C        13.15223714966321    1.37542717312985    3.47798108232822
H        14.09055489887963    1.81464270316483    3.17000631150702
C        12.76874454637603    0.12968756101421    3.01239340971162
H        13.41170794445929   -0.40783197344654    2.33274107481521
C        11.56944193868955   -0.42718347893461    3.42606854187215
H        11.27538477141829   -1.39968665335489    3.06347384490917
C        10.75462080073241    0.25332148678874    4.31616928095840
H         9.82713656943699   -0.18568593757115    4.64772553907394
C        11.13183877671319    1.49703719437758    4.79387391244082
H        10.51582622403145    2.02689924939807    5.50430297971941
C        12.71440121266442    7.61758738879590    2.88397268955052
H        11.97640266058293    8.00418540645327    3.57405486633062
C        13.79361000050960    8.40421600279747    2.51741734235909
H        13.89205686352783    9.39975601725773    2.91796021422373
C        14.73025729942640    7.88765208276422    1.63598096693998
H        15.58682885855531    8.46789396214089    1.33129196971611
C        14.53922566622218    6.60727694335430    1.14889487211171
H        15.25115980398730    6.18287899398496    0.46080912544233
C        13.42344389964766    5.87769337721068    1.55581087233185
C        13.11222465992803    4.52805794162326    1.06886285584761
C        13.86233015291407    3.86886725429703    0.09626129080549
H        14.74127516540567    4.32971329280921   -0.32259445371599
C        13.46249252866398    2.62059189691714   -0.34410486557521
H        14.02625327611044    2.09997448454449   -1.10187238485222
C        12.31581363138834    2.06617700820099    0.20291423193429
H        11.95239384366689    1.10319135633499   -0.11542886879946
C        11.62783076675315    2.77257311120873    1.17382925369212
H        10.73225337216034    2.35033571055358    1.60994842839816
C         9.97704714972468    5.77350694391692    1.68847976209969
C         9.77662374712707    3.91315551304846    3.35378279727711
C        10.28552635680184    6.21018484655328    4.18303864141436

