46
CSD_code = YIWDIT | q = 0 | S = 0 | Stoichiometry = C18H23BMnNO2 | MND = 8
Mn        5.28545718315829    4.94266551891253    5.86226496775429
O         7.15234401256172    2.90077907635865    6.80357284156488
C         6.43026022956712    3.71667352664967    6.38757504076746
B         6.74430557547524    6.12023092295369    6.66694127817898
O         6.14955777849848    5.07048515057635    3.08316937365254
C         5.89467346746744    5.03994522452965    4.21194717851972
C         3.56721802030697    6.01714929852578    6.59172714419823
H         3.44080580160085    7.01778744901287    6.99182912673653
C         3.74749755057635    4.84421882805555    7.34984486753511
H         3.76840628314735    4.78856877998349    8.43260742410712
C         3.64066217989552    3.73794427813045    6.47379982521988
H         3.59630166755714    2.69962778406035    6.77669014921511
C         3.40560301928189    4.22779367010579    5.17885331207092
H         3.15736752022537    3.63234433458284    4.31066928822735
C         3.37502334702685    5.63990540422580    5.24546336433509
H         3.06721240507754    6.30135453872662    4.44505402434468
C         8.32668354402578    6.42275094867705    6.38550702562849
C         8.62824648694521    7.92923918289225    6.38949327442405
H         9.68257646038015    8.09468003880209    6.17603785534159
H         8.40727963127820    8.38003439768418    7.35505472810810
H         8.04546609183186    8.43315131320503    5.62288285982528
C         9.15848513453767    5.76007554391157    7.49766101448448
H        10.21862883232320    5.91361612928454    7.30536680026566
H         8.96834228975383    4.69088235741403    7.51905042390077
H         8.92969434513309    6.18072765085649    8.47485067942767
C         8.79319257543150    5.84640341857228    5.04502523397728
H         9.86822404674820    5.96974776800691    4.92849484769361
H         8.29344115601291    6.35067438621663    4.22403132921173
H         8.54733174295394    4.78761153101889    4.99122914510284
N         6.31539266949649    6.70350977142295    7.97249649562078
C         5.87390892385388    7.97354484370704    8.05166619626614
H         5.88673266284799    8.53189834211365    7.12823717107787
C         5.39547649164372    8.52518329847409    9.22309976317653
C         5.38954545089017    7.73379236280645   10.37071232171715
H         5.01663165539254    8.13084675410210   11.30239231625253
C         5.86880797123426    6.42536737204087   10.30683339999916
C         6.32699629873281    5.95532663290805    9.09331713285710
H         6.69629839653797    4.94724757314895    8.97802520514226
C         4.89179964133448    9.93319719539940    9.25979605475835
H         5.37551700062727   10.48820048216774   10.06130002295880
H         3.81931653456873    9.94245810561440    9.45157964244554
H         5.07987914664156   10.43889954762730    8.31684976317143
C         5.88491183863963    5.55382849721780   11.52196127124142
H         6.36580928252019    4.60287219422218   11.31108279793983
H         4.86701249117555    5.36262338685718   11.86005485956294
H         6.41577516507415    6.04613518821851   12.33480116199276

