110
CSD_code = YIWKUK | q = 0 | S = 0 | Stoichiometry = C36H62BMnN8O2 | MND = 6
Mn        5.26402086048484   -0.40848494857501   -1.59848445108609
O         4.92464746600557   -1.02584021361536   -3.05941105503393
O         5.85910692263065   -0.13825066015186   -3.49637706079268
N         6.00007456764860    0.85271510211661   -0.11261224875539
N         5.32926725482345    1.00065261059318    1.04316423916325
N         3.69395783644091    0.90020027877019   -1.37529433120138
N         3.17113270322597    1.06135334755120   -0.13949889025236
N         4.29498640864040   -1.55505879270783   -0.26250789010222
N         3.89554429679227   -1.05198491065396    0.91942310233240
N         7.04065082522523   -1.46150265076726   -1.30868725287201
N         7.68264641992574   -1.64377198776502   -2.46935214651065
C         9.45597606351174    1.24378845597818   -0.87647639996737
C         8.07580611027287    3.21187417854266   -1.61526153296823
C         8.04565085488177    1.73856261854105   -1.19886871499032
C         7.11743557932280    1.57337974234734   -0.03685972806269
C         7.17785058087188    2.18363794426848    1.21821193056088
C         6.02140988171918    1.79989911088693    1.87646768812189
C         5.54872512096996    2.20037891535087    3.23773505708615
C         6.71167020735939    2.26165050724097    4.22784279448297
C         4.83848384056952    3.55509668825448    3.14967505143796
C         2.93779458569728    3.01338666061236   -4.27000439290101
C         2.34490326222889    0.56763567067694   -4.41989393597643
C         3.20262454442882    1.61777581166692   -3.70706789943771
C         2.92865451030017    1.56931668968639   -2.23672650303452
C         1.87445842266960    2.16405845080123   -1.53882793659411
C         2.06211723023044    1.82447848025124   -0.21218509127701
C         1.19556001510485    2.14703585133590    0.96475355155689
C         0.36931159735360    3.40860768486563    0.72161528164754
C         0.28094188730711    0.95212074223579    1.25659981151886
C         4.52289279893874   -5.18498413607674   -1.10050948992342
C         3.04504494835018   -3.59607368793014   -2.37263144744938
C         4.27020816034818   -3.72322144607252   -1.46041888435679
C         4.05122287527998   -2.86400530259228   -0.25406685040453
C         3.49488549932834   -3.21535905451872    0.98011643971558
C         3.41035865817379   -2.04016961490126    1.70194363465055
C         2.97271556458846   -1.83229410844535    3.11746217125448
C         4.21062690456640   -1.78548090714687    4.02065069597660
C         2.01456905945124   -2.92993905094871    3.57508793517482
C         8.45447886573115   -1.32263812137686    1.92012239461400
C         7.21496635747558   -3.48478695581288    1.58636516937903
C         7.39855517751238   -2.05152623485819    1.08533295125683
C         7.77472343453894   -2.04756766062637   -0.36377673244216
C         8.91415324692352   -2.61263792352040   -0.95586507399264
C         8.82336808548162   -2.33072345370736   -2.30722863599123
C         9.73591012369351   -2.61748777087594   -3.45480304571676
C        10.54059461189847   -1.35602760818755   -3.78903185073594
C        10.66562693631695   -3.78850982433536   -3.14753356732027
B         3.88267477853961    0.47016314023839    1.10059954242776
H         7.25237884628292   -1.15563931531953   -3.28732339923361
H         9.44800759494821    0.18543842571476   -0.62767618769265
H        10.10867363517302    1.39149254317534   -1.73433790868868
H         9.86896182982901    1.79410052213470   -0.03313110650132
H         8.47785633151822    3.82968438262878   -0.81487642765007
H         8.69868807426679    3.33974621771869   -2.49773614775533
H         7.07147030724618    3.55640657004137   -1.84918001384297
H         7.63664032472579    1.15914178028311   -2.03442770777391
H         7.95413498363187    2.82116899147203    1.58907967412009
H         4.83153477272484    1.45389494644337    3.58882892326739
H         7.24749345540133    1.31548624135530    4.24659592133223
H         7.40939859209186    3.04840347914357    3.95362571238261
H         6.33946169691876    2.46941676895507    5.22839917140568
H         5.52939298619543    4.31989353421646    2.80230469471928
H         4.00763412033979    3.49970449765297    2.45031989944652
H         4.45739723567083    3.84754938613483    4.12549571849189
H         3.49989265996683    3.76299639435882   -3.71715307680327
H         3.23991682013570    3.05616589094290   -5.31392240561551
H         1.87984708813751    3.25999856004885   -4.21094803142632
H         1.28679680784447    0.74134186725082   -4.22981570368233
H         2.52031517795095    0.60490305673067   -5.49260909566928
H         2.60947301762146   -0.42449788166720   -4.06010956155654
H         4.25796533007515    1.36649591562123   -3.86486709839088
H         1.08949055329721    2.76276339535612   -1.95101219793946
H         1.83561271008749    2.31514366182538    1.83579582097369
H         1.01307587207376    4.24256373189450    0.45251750642005
H        -0.34726956536876    3.24946968497497   -0.07982454030757
H        -0.18069038910439    3.67197994233348    1.62231848563614
H        -0.32901385686284    1.14757227707355    2.13581214906719
H        -0.37742581921394    0.77100089992188    0.40997765156847
H         0.87261013118323    0.05678373445376    1.42905620261153
H         3.65051360438490   -5.61606173203589   -0.61502216884787
H         4.72783319692085   -5.75869237631453   -2.00174329627943
H         5.37585910210455   -5.28317176351247   -0.43262552235715
H         2.92210889073668   -2.55582209566085   -2.66402603679309
H         3.17516546825774   -4.19780617062060   -3.26911477297988
H         2.14778551538644   -3.92776626307760   -1.85352663973838
H         5.13620786827025   -3.32934338896264   -2.00570217055425
H         3.19528068725439   -4.19230028357735    1.29713751883683
H         2.45775784028653   -0.86986093727152    3.18794047485326
H         4.73225646436115   -2.73947125837548    3.98621295267084
H         4.89184464777702   -1.00674885434851    3.68641938339072
H         3.92296305727647   -1.58419731129040    5.05023448022711
H         1.64723391205096   -2.71099890298101    4.57519430116180
H         1.16409191388401   -2.99984664107999    2.90144322282783
H         2.51836443518322   -3.89269214803377    3.60046346611793
H         9.42561423270634   -1.80177752591805    1.81617738208697
H         8.54018709166000   -0.28553799290841    1.60599330640709
H         8.17259520779104   -1.34078063947650    2.97080413364336
H         6.94764430087971   -3.47989854360848    2.64052701552699
H         6.41938100764404   -3.97573273132622    1.03279787881444
H         8.13281945637349   -4.05581668455916    1.46484718463108
H         6.44799588883033   -1.52017733110020    1.18669635288405
H         9.69301263333133   -3.15194291128056   -0.45781056199260
H         9.11738328045667   -2.87198922224835   -4.32359641337590
H        11.15608897244345   -1.06770606095617   -2.93944835247405
H        11.19031520422836   -1.53984478116659   -4.64130266013170
H         9.87561701116311   -0.53058102511982   -4.03148298963453
H        10.09251542513639   -4.67003352200434   -2.87039255692528
H        11.26760259830434   -4.02748916329269   -4.02090924395545
H        11.33571105166887   -3.53718238597754   -2.32902463954318
H         3.34904276466323    0.78825888855721    2.10005564838235

