42
CSD_code = YIWLAS | q = 0 | S = 0 | Stoichiometry = C18H18BrCuN4 | MND = 5
Br        5.60316831677741    0.44169237252582    8.63167373077876
Cu        4.32560705671905    1.83469385433201    9.96922852788258
N         2.97601331654685    3.29228851836729   11.36279635162075
N         5.31493915735637    3.65306135344470   10.11484533435556
N         2.47160080710691    2.05058222321163    9.04688717471448
C         1.76696487390833    3.16044942117402    9.25304096658393
N         4.13537464047518    0.92401720130622   11.82508918272902
C         6.35828331391216    3.88504196952849    9.32685555217307
H         6.45896136795360    3.23237382195571    8.47051363459770
C         2.18371950836781    4.03418275215963   10.41132116389512
H         2.80377073862218    4.84257434494484   10.00903830673841
H         1.29161921158447    4.49457965200848   10.87172919074836
C         2.16287555339213    1.26602043311992    8.02154442483581
H         2.77702966691397    0.38454159255486    7.89793827536450
C         3.95304318696857    4.07991381737313   12.07585993266624
H         4.32337610459091    3.48381855821194   12.91676020392173
H         3.52526603138452    5.01060318288991   12.48874305475728
C         2.22450910596207    2.37466921164577   12.18527573167315
H         1.37202851955514    2.01305166954143   11.60022034159737
H         1.82482590608375    2.85386644440457   13.09641286875147
C         3.05730394378303    1.17378726890371   12.56416768398547
C         7.09613793654481    5.68324704752167   10.70142279177755
H         7.78870859015506    6.47827952244371   10.93466858213070
C         1.12992965208179    1.55095410653356    7.14726203636194
H         0.91316147640894    0.88600334941954    6.32703460533726
C         6.00602475386456    5.43857826042841   11.52135703621841
H         5.83003701750986    6.03572573390863   12.40386483869095
C         0.71198516155941    3.52125903414985    8.42608877114062
H         0.15758217227654    4.42730031075966    8.62182979155394
C         7.27629475438038    4.88769159321693    9.57857876912331
H         8.10956885456535    5.04163662428934    8.91231612435503
C         4.87910042708280   -0.14106710376325   12.10130553548433
H         5.73590131764201   -0.29895071984267   11.46055606136829
C         5.13446760078822    4.40881932678883   11.19520321936730
C         2.68859243702113    0.35310543384957   13.62112834825705
H         1.80884288005886    0.58534238200909   14.20300857400418
C         0.38727469805308    2.70496613294682    7.35423839354440
H        -0.42875189468284    2.96506325362494    6.69631600322761
C         3.46198740350479   -0.75944976523239   13.91150748319469
H         3.19463690152152   -1.41365340676536   14.72794093435520
C         4.58292327924320   -1.01220141155613   13.13299092382304
H         5.21391425245644   -1.86545936833588   13.32223954231118

