71
CSD_code = YIWMOH | q = 1 | S = 0 | Stoichiometry = C22H39ClIrN6P2(1+) | MND = 8
Ir        5.66183946735269    6.89335498081538    9.63328227684395
Cl        4.59836539142267    8.65142932109129    8.41894229798216
P         4.73459253657784    5.68170426832487    7.85755402018504
P         3.69663627773052    7.26714218333414   10.85076734355842
N         4.46624622536600    3.35095572580759    6.42550637115767
N         2.71949340368295    4.99271414787974    6.11879838769674
N         4.89463478905635    5.35753088358964    5.13546992688164
N         2.09378920980606    6.72911867949644   13.01725634078420
N         2.60102373473828    9.06569665426427   12.61696550478750
N         1.04684005802418    7.90287155273816   11.18393014419602
C         5.44585675549984    6.15648438059279    6.20143904430418
H         5.22335235037967    7.21359862703929    6.02144955517677
H         6.53184081669733    6.02545260914019    6.21734649528767
C         4.94746219320576    3.83083814589702    7.69737371804305
H         6.00499214596440    3.56760734737282    7.79368802671378
H         4.39677512778254    3.33451009489158    8.50388447196761
C         2.93757345501331    5.72389311041554    7.34072540253371
H         2.32890004763309    5.27046638392393    8.13077361491752
H         2.63257587798987    6.76629299634914    7.20323927144969
C         3.46085595389704    5.54862530553711    4.99882256804328
H         3.24539852493038    6.61631337342796    4.91802202777837
H         3.13124295969467    5.04625624737926    4.08593455209407
C         3.04125582830151    3.58308482572885    6.25548306121309
H         2.50348951790084    3.16853277217304    7.11202632676588
H         2.71655020667919    3.06641208617849    5.34889081506825
C         5.17970011678228    3.94329485079481    5.30393845936278
H         4.87456428297290    3.42053391950705    4.39390355169821
H         6.25477109148678    3.80542643421409    5.44668812481130
C         3.77375972964645    8.86613478014833   11.80261304847513
H         4.65571964420733    8.86498310367225   12.44997894295864
H         3.86644474314715    9.68923505645026   11.08608759510385
C         1.97588294156286    7.51970992058455   10.15353650301835
H         2.01710695680403    8.30075648257165    9.38827105633351
H         1.62459558519188    6.58994906089149    9.69670944245225
C         3.18941567807153    6.15999305250172   12.27133548434209
H         2.88854468070889    5.18337796838632   11.87652168076075
H         4.03656378179787    6.01149170873225   12.94636067759257
C         0.89757602638838    6.88177446363272   12.20533092728892
H         0.07276029889074    7.16932863289176   12.86220704224228
H         0.65782881244593    5.92614533387701   11.73222530143426
C         2.43383835336476    8.01472563949299   13.60643051408836
H         1.62381211892593    8.30492675225852   14.28034322450591
H         3.35517328660153    7.91264568977541   14.18604626734195
C         1.39544129899663    9.16548228366235   11.81147768731206
H         1.53919054040018    9.92494720517420   11.03980234094227
H         0.57029177110018    9.46689317419563   12.46157324352665
C         7.78203418858271    7.67133716992602    9.40107371177105
C         7.79932782365057    6.26040147331245    9.25389849290865
C         7.30189793994090    5.67870832531347   10.48162646405781
C         7.05756884881283    6.74975408260611   11.40278694842831
C         7.29478276100349    7.98134130855037   10.71808386741274
C         8.29595940009204    8.68806886940117    8.44396821003407
H         8.41652576061118    8.27769283718518    7.44513459787993
H         9.26611121210477    9.05067523412316    8.78727531005429
H         7.62302312724695    9.54174084503227    8.38725167084809
C         8.50084349837024    5.50042692264625    8.17786807662529
H         8.60700743447090    6.09243979998742    7.27242302837404
H         7.99452761768902    4.56856025541892    7.93572635143243
H         9.50292649838978    5.24769464512018    8.52962835016591
C         7.38668650271508    4.23227364296489   10.84465018579137
H         8.34887149354836    4.03427924698341   11.31991948528810
H         7.30876832217310    3.59724039508495    9.96646637038595
H         6.60256433017191    3.95044375752621   11.54345868043086
C         6.84356469252730    6.58342862204119   12.86958945424605
H         7.81575836363234    6.60899280812684   13.36562616931892
H         6.38095398840964    5.62663043157403   13.09809465698092
H         6.23795716268967    7.38275414321877   13.29092959846588
C         7.34543080730271    9.34905230445204   11.31147358158264
H         6.95828481013590    9.36414869481225   12.32618131478265
H         6.78260509254666   10.06047713989468   10.70921818928957
H         8.38145372833369    9.68949482798178   11.33789455235579

