88
CSD_code = YIWMEX | q = 0 | S = 0 | Stoichiometry = C42H36O7P2Pt | MND = 4
Pt       -0.89528304263888   -1.12619175019186   -0.22704103340810
P        -1.74078751178499    0.79364092598099   -1.09958417882226
P        -0.76863231099796   -0.75148426204543    1.99529648388307
O        -0.95939019391908   -1.78676655620317   -2.15017956343845
O        -0.21783475503143   -2.99371227969806    0.09621783445455
O         1.10556341858621   -2.09114756366209   -4.34555410031293
O        -0.71773662881197   -3.91444435449227   -2.98290879194123
H        -1.38215173164097   -4.28101263507504   -2.38557989072723
O         1.01398071428742   -4.56906357586878   -0.99988958214982
O         2.09953681575451   -1.99739255266414   -2.35606719786444
O         3.61160429709637   -2.79753681112451    0.61112171778459
H         4.29718350776553   -3.40950807102344    0.90021139666075
C         1.06600750457383   -2.31551482111425   -3.17422915446401
C        -0.10550678830413   -2.84157263450069   -2.33527190954767
C         0.56332160662773   -3.22140882418544   -0.98204272204340
C         1.88135870657170   -2.38542866806752   -1.01459170751695
H         1.82980380586716   -1.49455393405086   -0.36979598848676
C         2.96892272977019   -3.34351143504621   -0.51422153204290
H         3.68358314389488   -3.51300747216222   -1.33118250570465
C         2.16984395497797   -4.63086495947810   -0.20444747306631
H         2.69550448565069   -5.55085248364025   -0.46330194077828
H         1.90033527744162   -4.63066550646204    0.86252931422002
C        -3.49679244795221    0.63739328388015   -1.53014828785589
C        -3.96470987980167   -0.64412016219658   -1.80729954835510
H        -3.26620333921065   -1.47098254703286   -1.77186718020161
C        -5.28983963591108   -0.83811426483075   -2.15070879584396
H        -5.65168426863220   -1.83170655203972   -2.36999742123713
C        -6.15369497172558    0.24393932588395   -2.21529556626602
H        -7.19008079030356    0.09365435796870   -2.48002064561519
C        -5.68850115046087    1.52141485590922   -1.94740878153693
H        -6.36084029309921    2.36487365756133   -2.00757203798123
C        -4.36264826262067    1.72374726969943   -1.60675011648355
H        -4.00026187266956    2.72145501028761   -1.40202634864855
C        -0.88497042570600    1.09597111571214   -2.66772012665160
C         0.49829292674600    0.93150798461452   -2.66472057552254
H         0.99944685908725    0.67120342243824   -1.73793061515191
C         1.21747997540186    1.06478544231161   -3.83525354434632
H         2.28561376439426    0.91080004040890   -3.83373453416599
C         0.55616074416997    1.36020342333039   -5.01703281242346
H         1.11309843364399    1.43990286040162   -5.93811761688691
C        -0.81756272497021    1.53045582487811   -5.02237430572908
H        -1.33085023291345    1.74971092631194   -5.94718103156885
C        -1.54384638308365    1.39842678217684   -3.85111614890624
H        -2.61923276094193    1.50921912506734   -3.85871486031440
C        -1.66137283324308    2.39504123296827   -0.22845398649407
C        -2.46346366106898    2.56954167931397    0.89658422590194
H        -3.16834403046388    1.79600998414450    1.16595456071728
C        -2.36705480873304    3.72285815090691    1.65015394103817
H        -2.99354819906806    3.84885064814610    2.52080045345353
C        -1.46756520192967    4.71397796501757    1.28899208408275
H        -1.38820094311911    5.61381371780279    1.88049144802435
C        -0.67562589304646    4.55123318260172    0.16509058215546
H         0.01789393861391    5.32729471462923   -0.12390298851659
C        -0.76771670251310    3.39602313437315   -0.59189903680147
H        -0.14766025525310    3.26962900811068   -1.46845277686784
C         0.33812315004628    0.52213314282894    2.67786275942680
C         0.65299514400322    0.56843051069527    4.03326321449239
H         0.26741848052439   -0.19097819635379    4.70009602576802
C         1.47083212256751    1.57370121754522    4.51580667885886
H         1.71309542960456    1.61076657473127    5.56786142536227
C         1.98311333533143    2.53049173661918    3.65313736714841
H         2.61964546828591    3.31405529732459    4.03632594094117
C         1.69200926819693    2.47342604828802    2.30022268597653
H         2.10307251998816    3.20838730620569    1.62461205472274
C         0.87560124578979    1.46846664498260    1.81478155266081
H         0.64654705453528    1.39964724479351    0.75811732829801
C        -0.27749415857745   -2.22244948975417    2.93841860655822
C         1.07020510958667   -2.57356453326837    2.92989682781464
H         1.78571004845776   -1.95304426216330    2.40699963408508
C         1.48550066104236   -3.72513896748223    3.56968214826203
H         2.53140330616574   -3.99639472423149    3.56085651528029
C         0.56293459441180   -4.53498454205892    4.21429149345198
H         0.88916089058455   -5.43895032026727    4.70753394755919
C        -0.77773787325453   -4.19032059047975    4.21700291443967
H        -1.49791231346420   -4.82512464495215    4.71244604034071
C        -1.20210587406034   -3.03787333609113    3.57837723191336
H        -2.25052417774088   -2.77390056924613    3.57285672157462
C        -2.42350858464634   -0.33766360222433    2.63141228809927
C        -3.48467933303778   -0.88791004866855    1.91266843074043
H        -3.25940848608826   -1.53454682931041    1.06788112224731
C        -4.78967462959097   -0.60360522269358    2.26613073971666
H        -5.60782171512561   -1.02553437014596    1.70172070510765
C        -5.04354998898095    0.23584960028144    3.34083814704467
H        -6.06175432348517    0.46667045189433    3.61643875979892
C        -3.99235969253079    0.78399939418314    4.05726848841918
H        -4.19340059180269    1.43995621262805    4.89164788848441
C        -2.68235951966355    0.50250076305682    3.70638848110910
H        -1.86681824614736    0.94928772697542    4.25530075433842

