34
CSD_code = YIWQOK | q = 0 | S = 0 | Stoichiometry = C10H15IrN2O6 | MND = 8
Ir       10.05096447829614    2.18904713196538    2.67126985524969
O         8.64336918250364    2.11219646259649    4.37383470301836
O         8.85509322237030    0.44344018588957    3.10440085995873
O         7.61140665726401    0.28996445694148    4.84721620986886
O        11.27539304164314    1.27806234921654    4.13626474838445
O        11.71118766796103    3.31662731455267    4.58382435638155
O        12.61294972950838    1.74975966598640    5.72747438157513
N         8.34302837413319    0.91603397781254    4.15231387562446
N        11.89305701133934    2.14278691207836    4.85818754602577
C        11.00498247219343    2.29667569123275    0.73268253806661
C        11.52050002611942    3.40696575300461    1.48851513157228
C        10.42161369323945    4.23305524174108    1.85925135379833
C         9.21582360089372    3.66864000463821    1.28388479994518
C         9.58304331122146    2.50612715410996    0.55387420300579
C        11.80258947411186    1.24635164699592    0.03838096407976
C        12.94902181247586    3.71275775148726    1.77179318579155
C        10.53300227470579    5.50569365502931    2.61717436630688
C         7.86977242591812    4.30813582935790    1.35122204816538
C         8.71235700942139    1.63854543517650   -0.28744917228101
H        11.23372915066776    0.32389902225918   -0.03987381165044
H        12.05612323006506    1.58230080396218   -0.96818514298442
H        12.72450458908844    1.03979258519973    0.57445309855229
H        13.57041785080395    2.82653234109625    1.68181645888955
H        13.30364727223212    4.45965954908184    1.06054275009112
H        13.05247192171231    4.12054961762622    2.77435859180073
H        10.99010993369294    5.30866153649702    3.58563824544829
H        11.17466665307848    6.20208592576120    2.07840037816650
H         9.56061298710668    5.96056348966216    2.77308132127196
H         7.65013004381155    4.62461423607804    2.36858133216337
H         7.84825533592881    5.18816112935949    0.70745989073154
H         7.09037617122285    3.62336153523625    1.02928353032657
H         7.68072792928718    1.97647044162017   -0.27180332809819
H         9.07122868135494    1.65094131252023   -1.31625361068473
H         8.74444278462945    0.60993985422626    0.06788434143806

