50
CSD_code = YIWSED | q = 0 | S = 0 | Stoichiometry = C16H28O4PRe | MND = 6
Re        1.31503585229230    2.71327977004686    7.39976467468662
P        -0.60090284461807    3.98998786456571    5.87676032764469
O         1.26802366944162    0.09200727810552    5.73202785086207
O         3.42419388826448    1.24709452014611    9.15021397852143
O        -0.78954041270339    1.75192581822959    9.46514628167798
O         2.23085675756484    5.27866936448732    8.88974996180050
C         1.19345111487562    1.07020302674737    6.32471858365645
C         2.65404079567399    1.79162849132797    8.49834427578243
C        -0.07621648018248    2.15289914919935    8.66429407884620
C         1.79218705426846    4.36701379873518    8.35274864322593
C        -1.71370363788282    2.73732551703548    4.93209762411272
C        -2.10041284983387    1.57871559692897    5.85959962953972
H        -2.84224552628708    1.85763282625658    6.59886457854051
H        -1.22958574637762    1.17940654144514    6.37695386158651
H        -2.52481153291818    0.77201207739545    5.26272472213980
C        -0.87037097031621    2.13954607949250    3.80063737051825
H        -1.32094909798523    1.20770853368865    3.46135129789112
H         0.13977613252365    1.91702096478026    4.13726988789617
H        -0.82306465457473    2.80618641664544    2.94528339429220
C        -2.99434238876342    3.31262953850483    4.32357573842589
H        -2.80282181502725    4.17112868445781    3.68909970594710
H        -3.72188894875440    3.59199150478989    5.07909329449262
H        -3.45130327661942    2.53971908941148    3.70529652430271
C         0.22056346857676    5.14551252968742    4.56399160962247
C         1.31859214407797    4.39137074535277    3.79867695345689
H         0.93428093042498    3.87066204637599    2.92877706473542
H         1.83549983546602    3.67721471025925    4.43237309557084
H         2.05866491316433    5.10683357960824    3.44421585256278
C        -0.70054358860987    5.77250740656441    3.51576549046574
H        -0.09746390117796    6.44852537266532    2.90913894025158
H        -1.51002744608234    6.35183322131874    3.94241122334748
H        -1.11430947582983    5.02557840248221    2.84423097718196
C         0.91575188654816    6.26151006757919    5.35032685842810
H         1.54692746191672    5.83727234254643    6.13077210293299
H         0.20750849720413    6.95770614650509    5.78976487966739
H         1.55778330174428    6.83382634395233    4.68180424135856
C        -1.76858121095245    5.05863328959501    6.98613556182994
C        -2.54775647855157    6.15039613985278    6.25085300394999
H        -3.08671978046209    5.76510859176727    5.39171574725030
H        -1.90284584963213    6.96634005080896    5.93783712324066
H        -3.28306349176672    6.56792564180670    6.93920020961232
C        -0.94465712745421    5.71725877347060    8.09877344072850
H        -0.11012902312859    6.30093020097977    7.72730964504217
H        -0.56467851864318    4.96317506954012    8.78660586416765
H        -1.58844046733364    6.38562683813799    8.67029551314054
C        -2.77803731992867    4.15895570652588    7.70698712375984
H        -3.23443643312223    4.72578172350816    8.51853772859105
H        -2.29125487869368    3.29489655689767    8.14887938320904
H        -3.58064953041360    3.82780905918957    7.05582307568782
H         2.48831700097942    3.19807699066460    6.33348100316052

