50
CSD_code = YIWTEG | q = 0 | S = 0 | Stoichiometry = C17H24CoN5OS2 | MND = 6
Co        2.66523518902082    7.41481011749797    5.08523018812091
S         2.26166231792305    6.66549068444548    9.42564075654534
S         1.62269012781552   11.80811231667854    5.51082348316815
O         3.14778128803668    5.59767970542649    5.18704905522183
N         0.84558561934393    6.97341837906550    5.32809301523286
N         4.82362639912800    7.74379639757309    4.75308138504442
N         2.36331572514383    7.31878300358177    3.03160325775610
H         2.58585290431664    8.27656451330094    2.75042905009115
N         2.85740204424793    7.57043049898026    6.89487176521972
N         2.37060512524144    9.22708548855760    4.92039347232708
C         2.59864155157425    4.72346508324245    5.95447603087405
C         3.31514067688672    3.56404788751567    6.33116107961553
H         4.33063918924237    3.46012060475055    5.97711884590381
C         2.75363634653124    2.61723394397931    7.14708032999819
H         3.33515032022184    1.75528696270310    7.44109305677106
C         1.44272475286144    2.75364894045786    7.61241774656305
H         1.02035204445888    2.00303655419314    8.26172974166861
C         0.70549877085980    3.84588706327564    7.23728832188899
H        -0.30977847237823    3.96619747338724    7.58767053048586
C         1.25410468147264    4.84220720230073    6.41271754230393
C         0.45203963956536    5.92485647688003    5.97035945625473
H        -0.61766415527664    5.81768317923069    6.16239833768721
C        -0.17002265703295    7.85987439172598    4.80283377904988
H        -0.13494970678882    8.80563152304670    5.34948342760564
H        -1.15772863290340    7.41157584837556    4.96247887616619
C         0.03953333366806    8.12572523254681    3.29763143209273
H        -0.92803678785271    8.10069975933455    2.79543387774525
H         0.46327596664197    9.12050460538880    3.15661892020542
C         0.96399817683988    7.10285963663900    2.64147769279519
H         0.67388349294826    6.08612089404224    2.92219907997653
H         0.87095742064558    7.19059478205660    1.54834329651683
C         3.26307872542946    6.42884390166109    2.29694409596809
H         2.94661840710617    6.36501729763322    1.24453034117201
H         3.19758206275416    5.43067144572193    2.73667521465598
C         4.70360100625253    6.92251686666944    2.34443189976449
H         4.75414691868780    7.94573728827427    1.96573438884130
H         5.29584099376113    6.29938741490503    1.67069302765612
C         5.34032678369171    6.82126951419772    3.72798704682736
H         5.18534826159109    5.80635121828614    4.09793140290072
H         6.42361348102968    6.98855316209441    3.61993388261950
C         5.53560454586486    7.41868656669549    5.99621068497356
H         6.62007992806555    7.49590241319944    5.84871565103609
H         5.28884166569862    6.40813259577731    6.31235621741913
H         5.23413326116843    8.10495795528289    6.78304656273128
C         5.18525769142318    9.12158345343328    4.40674779657951
H         4.89737983618181    9.78604848698820    5.21731393424059
H         4.67127185125683    9.45584635500917    3.50937817969961
H         6.26783089545232    9.20449175594261    4.24713797760379
C         2.55392377540137    7.14051825916523    7.95186419194673
C         2.04496721677906   10.30995489888019    5.25754067246689

