98
CSD_code = YIWTII | q = 0 | S = 0 | Stoichiometry = C42H49N5OW | MND = 5
W        -2.02337603048883    1.66586719722563   16.47336507514064
N        -2.02576756040969    2.70978832843257   14.63980241418093
N        -1.03865220377235    3.63003191959620   16.42606888037819
N        -1.15114072540223    1.81013242853205   18.34499450686032
N        -1.53665398820061   -0.00862894093441   16.12515780411739
N        -3.76864663172248    1.85934649640386   16.81146941433986
O        -2.34251725773514    4.99218915415118   15.03876165975213
C        -2.76181201977845    2.54042807882761   13.46474171858746
C        -3.01088165663404    3.55442550560238   12.54169387715389
H        -2.65627957528109    4.55507241511267   12.73193712729452
C        -3.72835335057546    3.27428789054006   11.39438163521830
H        -3.92157732138456    4.06822057117036   10.68699153695262
C        -4.20790690212497    1.99688282449829   11.12996196201518
C        -3.94963753057223    0.98990571517784   12.05358655889429
H        -4.31560840987079   -0.01029585046482   11.86822585688136
C        -3.23660584572441    1.25241978845242   13.20582857619506
H        -3.02811771590530    0.48155096705298   13.94743192714538
C        -4.97360724572791    1.71935236191411    9.87130580491997
H        -5.41825658050350    0.72774405349930    9.89745157128100
H        -4.31234100378043    1.77670514657166    9.00655266028482
H        -5.76445991930609    2.45470701909250    9.73367562600982
C        -1.89010993878716    3.88913422145045   15.26094172686536
C        -1.13341649375320    4.51357089813929   17.53395749985875
C        -2.37463520417944    4.64673196136416   18.14414210255602
H        -3.22281981387356    4.09441681581429   17.75045123670214
C        -2.51735694925726    5.44974661280986   19.26614185625041
C        -1.40313494077352    6.11524911375387   19.75980653768665
H        -1.50239665745750    6.73602310651124   20.63921254412856
C        -0.15915098807321    5.99698099948988   19.15346863814395
C        -0.02833805117089    5.19316455338667   18.02955114458256
H         0.93468903895489    5.08853812773227   17.54953887000382
C        -3.84848783235339    5.54527956031622   19.94401333855606
H        -4.61872280461982    5.83086711628910   19.23006784651379
H        -3.82801052901530    6.27592401976084   20.74859841618822
H        -4.11908828408403    4.57454722916036   20.35932392855771
C         1.02826518322885    6.73804718279483   19.68843316551559
H         1.94334790934120    6.17231434735231   19.52694339060887
H         0.91660802695559    6.93584384210261   20.75188754509706
H         1.12920872052936    7.69514570953406   19.17576971111820
C         0.23995055822197    3.05441386741829   16.12974606011360
C         0.90002102291813    3.41889068531418   14.97259866414198
H         0.41165467901585    4.06812732108784   14.25798224893545
C         2.20802320730583    2.97799667627161   14.73626452268751
H         2.69362043859640    3.24669014777553   13.81045796244858
C         2.87770985727508    2.27557725366219   15.69729823307630
H         3.90858642687166    1.99018622132909   15.54849936914091
C         2.25526622732893    1.92194384069987   16.91626401108637
C         2.97101139943983    1.28021062304489   17.94330972622110
H         4.01122370961857    1.04140357670970   17.78430499135557
C         2.35140271242325    0.98095394181430   19.13060504886613
H         2.91071261743379    0.51518969500852   19.92890844160986
C         0.99322497999053    1.21621119816335   19.31197972018822
H         0.51076788876438    0.89715821459484   20.22357835188809
C         0.21463118559896    1.77993907375377   18.30350758385337
C         0.88231116554221    2.24141524511206   17.11198809799173
C        -1.82417353042017    1.68380637306543   19.56064736413390
C        -1.55132231795943    2.52231192151240   20.64096594240810
H        -0.76596670149926    3.26068181933095   20.55562251835962
C        -2.30015716814526    2.43491661544735   21.80475907476889
C        -3.30538409238677    1.48196681022983   21.89406030687290
H        -3.88884645115110    1.40860204473218   22.80093647752727
C        -3.57426335921317    0.61504038309587   20.83910235981895
C        -2.83363540623975    0.72464983359198   19.67399340264870
H        -3.00910900637995    0.07843361563720   18.81389264109620
C        -2.00878415666932    3.35620053948208   22.95155778715087
H        -2.87348398822743    3.45181102106834   23.60400751123512
H        -1.72686961793203    4.34156941328404   22.58697900963348
H        -1.17934547367525    2.96651445045025   23.54256214022046
C        -4.66323073227678   -0.40973890170093   20.96113233951795
H        -4.72427901115397   -0.78970196421644   21.97882525206790
H        -4.48782485733534   -1.24122631903151   20.28280259181329
H        -5.62754379062767    0.03466473215729   20.71146235186345
C        -1.11770781074840   -1.35143885390172   15.97486202014498
C        -0.21937218982309   -1.48114438303711   14.72886297712129
H        -0.78009495131744   -1.20823642989269   13.83702305077281
H         0.14335945816183   -2.50078489474219   14.62290212563305
H         0.63149885697895   -0.80793603612657   14.81956752569746
C        -2.33065078621872   -2.29431291828161   15.84045122871577
H        -2.89887244975106   -2.04275956239206   14.94748948989775
H        -2.97742393989117   -2.17521298647030   16.70718008528160
H        -2.00728080520061   -3.33027736130189   15.77237566789137
C        -0.30707875707857   -1.74005591614072   17.23019540858107
H        -0.91456592601737   -1.57445609597043   18.11891213354890
H         0.58322053601078   -1.11801721217885   17.30325464637874
H        -0.00857787981951   -2.78479746751304   17.18662389741395
C        -5.16289372829117    1.61651601167427   16.83573683010299
C        -5.80201255746571    2.26410670341783   18.08033974322071
H        -5.74580003966270    3.34791848840566   18.00759973777637
H        -5.26615568091254    1.94925095200584   18.97301380842002
H        -6.84642534589980    1.97290712208445   18.16323117357998
C        -5.42997422972842    0.09773607309905   16.83744120952426
H        -4.78799743166994   -0.36278166024335   16.08655275621623
H        -6.47213211602705   -0.11336950382130   16.61025879622445
H        -5.18695194353322   -0.32154723202784   17.80993713735412
C        -5.78102913570400    2.24016057958456   15.56589001803623
H        -5.49711439674678    3.28906985428769   15.49270585229221
H        -6.86581697704888    2.16864107914528   15.59618671286683
H        -5.40869910434262    1.72375319223344   14.68336817003348

