53
CSD_code = YIWWOR | q = 0 | S = 0 | Stoichiometry = C23H23O5PW | MND = 6
W         2.59348491584967   12.42059913827232    2.77661272885504
P         3.44471287277487   10.23144060397744    3.58235087497371
O         1.53114651696074   15.23030122899292    1.91637024895764
O         2.71943946954569   13.43461305434131    5.74730830377467
O        -0.35173138877363   11.45366446184674    3.28628079228450
O         2.36818197566176   11.67594856459817   -0.26475284849241
O         5.54668120190116   13.40783571362618    2.36114575936352
C         4.52516691058211    9.09553385919536    2.62885835785453
C         3.06340754298145    8.59598354769510    2.84283948112646
C         3.59134186146587    7.36203204913250    3.59052315597776
C         3.94547136912334    6.26362199518931    2.59871947205869
C         5.19750008273066    6.69163179962956    2.41618473466646
C         5.05965186554064    7.86430120346294    3.37587249318334
C         5.14787743923272    9.56557543503398    1.34205448903492
H         6.21158428835558    9.75252888384398    1.48392717965174
H         4.67757456513417   10.49000082033400    1.00374411148842
H         5.02666311452144    8.81460295909109    0.56186780310778
C         1.97777574861967    8.48199785162684    1.80692593569441
H         2.32026946499206    7.89313092834040    0.95648677978804
H         1.68772428698483    9.46957185951815    1.44544664639770
H         1.09894367295752    8.00010105674786    2.23350507734761
C         3.00185813676005    6.92229111264913    4.90840010136457
H         1.93571570950278    6.73407533016854    4.79369188637564
H         3.14483887679092    7.67467206165356    5.67855954797634
H         3.48250844080390    6.00176545850129    5.23441383746174
C         3.12021298483715    5.14341690317721    2.08519809943760
H         3.67122828236187    4.57453303948115    1.33994410191827
H         2.19793079053626    5.51306297808407    1.63938421233473
H         2.84673098995551    4.47555159393130    2.90251576361511
C         6.36413548016054    6.25236021137008    1.61263519293301
H         6.09457295146805    5.41253569674948    0.97646750051814
H         7.17688551975422    5.94464113629972    2.27119844937293
H         6.73475771339467    7.06528473909453    0.98997231185601
C         6.10831303441147    7.98776586846575    4.45417304595897
H         6.38647027548374    6.99709711980552    4.80888153695031
H         5.74293742113123    8.56404969101758    5.29923017153222
H         6.99642204691242    8.47398386727711    4.05404321562815
C         3.69657986823260   10.24511916468667    5.38046024967444
C         2.61677488681706    9.99542665377718    6.22311195790279
H         1.68264993325060    9.64841946047824    5.79989288091695
C         2.74148226417385   10.20193197616450    7.58467419009875
H         1.90600166907827   10.00080239552823    8.23895291767797
C         3.93251727436412   10.68069258537041    8.10710877624959
H         4.02599243036983   10.84621593636044    9.16993731489831
C         4.99555017008651   10.97099287526660    7.26662357555416
H         5.91372840253582   11.36833728143288    7.67357199375579
C         4.87639980364248   10.76654747371999    5.90421816765822
H         5.68952258823774   11.01655324625641    5.23457033235801
C         1.91904041147596   14.20131801466260    2.22815763102245
C         2.68352778222525   13.04142116728179    4.67618525743123
C         0.71976459520811   11.79583687363448    3.08945885512030
C         2.47171062226654   11.88537077525056    0.85450692129788
C         4.47467086662783   13.04061029790357    2.50208842606196

