59
CSD_code = YIWZAI | q = 0 | S = 0 | Stoichiometry = C23H29ClN4OPd | MND = 4
Pd        5.90216326275919    4.09521344069609    5.23620168116356
Cl        7.18637280066476    4.07325514028170    7.10809080967139
O         3.65134576841330    3.00050656390202    1.88805970114914
N         3.90410929955500    2.57090558760379    7.02222643328676
N         4.18586322276211    1.80965350569909    5.03062750558655
N         4.82119997313949    4.13222447620285    3.49817779256641
N         7.26754586149443    5.33997479956014    4.40666173459849
C         1.77228432800473    6.26183541895347    9.58394578715697
H         1.64279290219792    6.82646432680142    8.66340824020475
H         1.92032012740493    6.96474156330171   10.39974616625292
H         0.85762815358743    5.70436321931561    9.77406837626620
C         2.96274521245719    5.31802641212718    9.46900179296314
H         3.08827060643679    4.77326729708520   10.40698911145016
H         3.87270542506224    5.89573510285912    9.29754524622726
C         2.78207522899372    4.32440875366079    8.32492038515748
H         2.65921019824453    4.87097600418817    7.38789267442073
H         1.87749356495653    3.73384521265638    8.49060090637389
C         3.99347007143130    3.39848254909354    8.20084915791239
H         4.91261791730769    3.99023556996190    8.11426805278793
H         4.07065209461561    2.75502306824119    9.08172441969678
C         4.59488888541216    2.76235092324398    5.88645995581202
C         3.23486425789761    1.02552578822944    5.61772925766507
H         2.76928763896302    0.20499856281203    5.11160324894152
C         3.05995984166939    1.50343937632141    6.87499697134279
H         2.41727355070002    1.16735504421210    7.66218811747425
C         4.66149728657794    1.73774624699155    3.67506558234541
H         4.18352835657318    0.90551830179726    3.15675017830598
H         5.75414618529428    1.59889605191212    3.67681315107195
C         4.32680688263374    3.05984303471896    2.90688813530876
C         4.74928013461729    5.41173535022194    2.93227437650614
C         4.18280201286502    6.45508813245502    3.68372816623211
C         4.20209306118000    7.74549136481639    3.18333532102427
H         3.76180967412793    8.54381683993777    3.76570133728404
C         4.77084889221408    8.03792696344048    1.95166763332586
C         5.32315188487982    6.99869536506029    1.21955935471104
H         5.77050157794880    7.20938865353338    0.25766166570495
C         5.32465870602363    5.69252340725424    1.68368045619553
C         5.95053651118255    4.60608887260204    0.86661744286104
H         6.56930465423737    3.96015206640578    1.49160160135970
H         6.56137541015942    5.02358017126164    0.06941496597760
H         5.17050305968513    3.98206548070311    0.42979441335720
C         3.57467725574426    6.16865032775374    5.02910407645322
H         2.82768369053338    5.37805146810857    4.93408477768322
H         3.09679331092270    7.06036816449969    5.42935209414607
H         4.35341787823035    5.82806467136448    5.74781912747368
C         4.76871484255695    9.44023631302751    1.42028235390502
H         5.60068321544435    9.59796202573450    0.73752181501594
H         4.83366938290521   10.16326786432511    2.23082935406390
H         3.84443911642360    9.63114459607005    0.87389401253183
C         7.23673605151119    6.66647985770234    4.47514436832652
H         6.51134219576074    7.10236416749204    5.15354901330511
C         8.08525666012655    7.46613952788505    3.72921185438882
H         8.01911831030522    8.53948413683045    3.80459524293866
C         9.00744249656455    6.86292015973443    2.88944006106490
H         9.67700962121960    7.45721980578820    2.28647145197841
C         9.06106865420228    5.47825882622045    2.84889237268667
H         9.77523563220144    4.96661590727223    2.22305979903888
C         8.17209925495333    4.75479063915739    3.62452074092779
H         8.18762794605963    3.66351753089552    3.63179017637846

