56
CSD_code = YIXDIS | q = 0 | S = 0 | Stoichiometry = C17H35ClP2Ru | MND = 8
Ru        8.82763106248024    0.33077938657105    5.65668773746175
Cl        7.25030014010467   -1.42443960938907    5.36082047463848
P         7.34118935627954    1.37595763655775    7.05078016999158
P         8.05656629590495    1.20286094854867    3.68234246898458
C        10.43786813324582   -1.27177700731628    5.87032041489103
C        10.89798165808926   -0.31170156138421    4.94949316024038
C        11.01000209002334    0.93804620829334    5.63204593358751
C        10.61720775282032    0.72728125320173    6.97311025783238
C        10.23414059348561   -0.63568010320074    7.11911169909807
C         7.43150893832823    3.19507351071336    7.40985459132038
C         8.77951983803268    3.66710905495684    7.93225069887506
C         5.54868516773345    1.22998908444329    6.61945659242808
C         4.51396782616797    1.67964392830405    7.64464051560118
C         7.40494229266133    0.70171990271118    8.77066632495373
C         6.96685033809632   -0.75640443518137    8.82722153339668
C         7.85908493044419    3.03682467699065    3.51539760424834
C         9.09870990337017    3.77040924443006    4.00309660066384
C         6.44225634635755    0.59331668979717    3.01876942088462
C         5.93973648255181    1.20904178254097    1.71862220140168
C         9.18750512500999    0.86398818872398    2.25691095863315
C         9.19129347689367   -0.61776987106058    1.89557985219357
H        10.31905183462693   -2.32965277512868    5.67617886829541
H        11.27922252951532   -0.52226950687643    3.96036031569482
H        11.49203218989981    1.82539739338834    5.24331147176220
H        10.73147823629351    1.43421174533808    7.78419348212564
H        10.03826238738650   -1.13921765708646    8.05573564766877
H         6.65324943495615    3.43050061201974    8.13991316740530
H         7.19474101299363    3.71245165300773    6.47650835260113
H         8.77673716705898    4.74830503216275    8.06225342214141
H         9.57103842674903    3.41073134903328    7.23142483656531
H         9.00430922724986    3.21055582345291    8.89375405344546
H         5.40524697479053    0.17386048108510    6.36897369627890
H         5.42670903658904    1.80696163827076    5.69546329699814
H         3.51734832781843    1.48042799622611    7.25411258823759
H         4.58390985352020    2.74575623274170    7.84740400210483
H         4.61802946953285    1.13920077769954    8.58104040347463
H         6.78922847808928    1.32773442786399    9.42408275931564
H         8.44415446863294    0.79023146885538    9.10191285216333
H         7.23406179462918   -1.20154538244084    9.78451223834245
H         7.44320675375931   -1.32537250853337    8.02972410022177
H         5.89212619943234   -0.84781312955196    8.69349675903798
H         6.99147015530317    3.31645383044348    4.12095468968184
H         7.65078207149036    3.28726595718590    2.47311392957270
H         8.91570199941791    4.84033348134543    4.08411178825525
H         9.93061055383806    3.61616234349080    3.31953555425670
H         9.38148308900276    3.38633211211278    4.98305558772871
H         5.70615979710645    0.73414429864495    3.81439666633583
H         6.56883365259003   -0.48740778587679    2.91140822562109
H         5.68222588473273    2.25742074645900    1.84814256953592
H         5.04283099858400    0.68221166071047    1.39769319683818
H         6.67690790345153    1.12701532088537    0.92392204281355
H        10.18610244866536    1.18526847502395    2.56574485090268
H         8.89153311481805    1.47790403744003    1.40162729196522
H        10.08234440258053   -0.87862781942321    1.32635061444195
H         8.32026761989446   -0.87357795360056    1.29756631015907
H         9.16375475693467   -1.22602328559663    2.80104115668501

