56
CSD_code = YIXDEO | q = 0 | S = 0 | Stoichiometry = C17H35As2ClRu | MND = 8
Ru        4.69616317637407    1.70837139522206    1.40408502939421
As        3.25662996460629    3.24272299736359    0.25793694181060
As        3.61245286815578   -0.41293047890435    1.15051878829195
Cl        5.37714804647119    1.28960709442208   -0.87511541974356
C         6.71778143218843    2.37166728564233    2.16131184879332
C         5.74083169290224    3.30190622560120    2.57505642715720
C         4.81086682147907    2.62441831935187    3.42538349673419
C         5.21974163467661    1.27610731500658    3.50895396201466
C         6.39464715542908    1.10945435320647    2.71374960225971
C         1.79989110504657    2.53627399309688   -0.88472419290946
C         0.91520040767879    3.56075942580086   -1.58615958553423
C         2.32968544463675    4.65028898552984    1.30555342014996
C         1.30745654452523    4.07910059164608    2.27828207249449
C         4.12804745269536    4.39936439725729   -1.08102855737925
C         5.47343320268624    4.92817624721013   -0.60468738906662
C         2.13911910860656   -0.88049626860962    2.39521962288293
C         0.92684954700078    0.01186720415284    2.16896255352053
C         2.88197260272972   -1.02278120385610   -0.58578590400797
C         2.41383808002399   -2.47207830261176   -0.64727161198768
C         4.82137133883184   -1.90626988982538    1.60346738006937
C         5.98007979095398   -1.99453443545852    0.61718021264376
H         7.60181187407813    2.59771834101794    1.57969455395173
H         5.78649794645915    4.37475911463175    2.43280366008800
H         4.05356346469769    3.10064855171170    4.03460552617116
H         4.79929852781712    0.52646106474670    4.17231678300283
H         7.03265682108645    0.23579142919282    2.70835617513307
H         1.18507808083523    1.87342817676355   -0.26487770789138
H         2.31452331334960    1.91340379985738   -1.62731984797020
H         0.17920411561772    3.05764584429148   -2.21280447670984
H         1.51014068874764    4.21359052826261   -2.22315880785702
H         0.37922750274624    4.17413702253256   -0.86250037031078
H         1.85456025982951    5.35705138886718    0.61648475959704
H         3.09961650634431    5.19914377288502    1.85937975190457
H         0.87745942973458    4.86173299799011    2.90304528457363
H         1.78313901167774    3.34168295015476    2.92673176200028
H         0.49910720855896    3.58737776548145    1.73729251519696
H         3.45897782053369    5.23280641061165   -1.32884179054811
H         4.27610262271299    3.78405479013833   -1.97386285704896
H         5.96512269832084    5.50603014334887   -1.38642798530176
H         6.11857582980722    4.08793888312284   -0.34353623368997
H         5.35066310070372    5.56891080617598    0.27098143596299
H         2.51687024561179   -0.73930119196929    3.41305197884395
H         1.87399665308443   -1.93691115366633    2.28742053810394
H         0.17901061536004   -0.12294281664878    2.94951272866551
H         0.46474064843150   -0.21169334477954    1.20702166831109
H         1.24613553101293    1.05815121852388    2.16423562740455
H         3.67321629701948   -0.84291039616224   -1.32011492158430
H         2.05090200242713   -0.35621623778318   -0.83802524719424
H         2.02076791918419   -2.69570954139098   -1.63839754141392
H         1.62242187959993   -2.65911745671765    0.07905348352377
H         3.23503848049445   -3.15930289790313   -0.44961159023037
H         4.25511026111544   -2.84526916860135    1.62762639014039
H         5.20068066997949   -1.72648794346809    2.61640327412043
H         6.72576607893269   -2.71933637884562    0.94352970132995
H         6.45910991712518   -1.01930336454567    0.51501974604121
H         5.62079855925943   -2.28555835906753   -0.36947666390706

