71
CSD_code = YIXFOB | q = 0 | S = 0 | Stoichiometry = C22H44CoOP3 | MND = 6
Co        6.82142277894051    6.72743527135910    8.40196913585033
P         8.05551967986457    4.86712048212069    8.94010381485473
P         8.26280406778228    7.56950128971532    6.94837796152748
P         5.21446042669344    6.06527059069720    6.86943773559308
O         5.66373994192122    5.99426224193877    9.76090798460852
C         7.20360378679621    8.27320710559836    9.66189449462595
H         7.16752075719866    7.93793709819832   10.69283138668563
H         8.05753347601379    8.90405477810303    9.43691882515999
C         5.99697937597828    8.49416504602297    8.98101209896408
H         5.93656450383652    9.29907916964585    8.25021213691110
C         4.74771463582800    8.12827073350148    9.65874476648316
C         4.74301536056131    6.82174522792904   10.19567259993265
C         3.72860300983064    6.47676227508614   11.11826488861944
C         2.69686108220452    7.38462308800681   11.30528864655996
H         1.88501371475149    7.13362815774601   11.97037349295662
C         2.63306970127752    8.61772187093101   10.66609071458337
C         3.69390643242227    8.99854238738471    9.85916031173330
H         3.71068381574516    9.97923129193625    9.40005716084634
C         3.79242109782394    5.15438365874749   11.87005059865296
C         5.15321198044325    5.07180144098940   12.57556829939511
H         5.95315497024422    5.21510713926019   11.85516815428166
H         5.28010331201818    4.10355917970282   13.05841484019716
H         5.22882075988583    5.85049844417301   13.33261956065373
C         3.65083348663391    3.99844319739477   10.87285916262367
H         4.40244605682296    4.09681141093368   10.09661337211915
H         2.66370166685037    4.01970166631148   10.41355089706421
H         3.77951106073130    3.03944984394376   11.37346356445045
C         2.70040398508046    5.00819743451409   12.93352378803013
H         2.84497779927107    4.07108825828509   13.46943167560864
H         1.71032362874592    4.98692595441629   12.48347013875915
H         2.74526927753654    5.82132562905490   13.65457839059975
C         1.46458094604899    9.53245176969246   10.90214546680382
H         1.53704002507390   10.00187121310995   11.88479312238187
H         0.52645927097322    8.97977104510880   10.86603100627011
H         1.43370401121057   10.32046737138186   10.15237036492185
C         9.10873439892725    5.14010356635203   10.42011480116199
H         9.60273715203843    4.21755907702471   10.72358018623776
H         8.46945526086763    5.49616806720809   11.22451880132760
H         9.85228666731965    5.90504595279404   10.20685769119405
C         7.15125990957261    3.37388447820666    9.50147551811890
H         6.50402150675545    3.01909150631869    8.70227412736778
H         6.53644448870887    3.63926625138774   10.35440545847672
H         7.85466358755793    2.58905723406355    9.77917138977826
C         9.27530877202183    3.99724113611090    7.85194044626852
H         9.77001313072044    3.19820567079381    8.40182330263934
H        10.02800591566790    4.68623056655260    7.47841695380781
H         8.74494078433993    3.56814847213429    7.00344530729622
C         7.99518618699064    9.27328657369572    6.30630705014293
H         8.02416785316171    9.97647738124186    7.13604245990298
H         7.02021742943310    9.33927718767569    5.82863053310382
H         8.77115733253035    9.53264304011122    5.58621671576498
C        10.00148099491957    7.78065415188084    7.51977665340279
H        10.60976563514381    8.22326723691973    6.73121224621134
H        10.41592139198351    6.81563926161435    7.80039154731158
H        10.01947716477528    8.42707624747459    8.39414909787386
C         8.59876040544052    6.72041753077275    5.34692322491926
H         9.41585703155052    7.20962830742365    4.81739975139294
H         7.70296432661315    6.74955205767839    4.73038334447509
H         8.85780529566803    5.68116278972305    5.53350958182954
C         4.69157855569692    7.30738137089821    5.61121128120520
H         5.53451356604948    7.59696358896067    4.98802336303737
H         4.32458825748107    8.18753956396445    6.13598465772433
H         3.89875064581804    6.90701657889674    4.98078252720376
C         3.54973171622854    5.62518476620332    7.49422294509441
H         3.16192931743963    6.44573568390532    8.09404978530996
H         3.62804344591546    4.74662486867038    8.12829219747701
H         2.87678620556822    5.42167938920479    6.66111796572994
C         5.47741047488833    4.60652293314278    5.76730308218904
H         4.62028060254983    4.45746952228766    5.11207553933726
H         5.61261240228556    3.72453107022418    6.39044465061504
H         6.37356230432561    4.74455415554235    5.16755525575488

