60
CSD_code = YIXFER | q = 0 | S = 0 | Stoichiometry = C18H36CoO2P3 | MND = 6
Co        5.32196902291713    4.59759857409852    4.54676268260838
O         4.95152947453450    6.01518595746702    3.33508722140139
O         4.26308162891913    8.13605417052883    1.79977429671140
P         6.93991784070205    4.52622041994538    2.91910035032747
P         5.80547485700495    6.31809862275424    6.01368464214067
P         5.89725661139770    2.92381543755907    5.83965630786065
C         3.72055243761742    3.54173766073683    3.83445282628990
C         3.26552593773268    4.51003692847023    4.73323293492590
C         2.78332886137200    5.78440193631238    4.17406429935659
C         1.50854842138661    6.29689785345672    4.35136041262788
H         0.81499108064254    5.80025068729898    5.01635887152687
C         1.12930972940655    7.43240955531013    3.66121472939248
H         0.13822648199767    7.84244975932878    3.78859694012526
C         2.01390036536625    8.05245969898414    2.78532819931213
H         1.68490522843316    8.93190394846821    2.25242116611193
C         3.29806585498974    7.56926710303340    2.61431232848748
C         3.71254224037711    6.43180282844039    3.34221584542940
C         3.89686733332934    9.24788957566958    1.03284442286595
H         3.06998409924628    9.01735569654477    0.35086813369862
H         4.77860426489614    9.51217367083166    0.44906704124756
H         3.61373954428622   10.10091573662787    1.66157345718936
C         6.22351836969396    4.19691134853253    1.26481292269193
H         6.99524909352123    4.26011070124591    0.49808621665990
H         5.45312073648343    4.93994014866388    1.07883404103388
H         5.77657695420988    3.20458879713015    1.25274643043615
C         8.42855735489194    3.42731137731450    2.78765506065490
H         8.11221818820905    2.39480059178091    2.65695027227951
H         9.02401647476159    3.49883266751134    3.69592422151059
H         9.04419582216432    3.71607389787019    1.93714238031846
C         7.76937663027850    6.12660873624903    2.58270792024690
H         8.29731960595526    6.07915206917805    1.63062090810465
H         8.47803859700858    6.34352008714255    3.37957480664384
H         7.00828629011846    6.90034647683365    2.54830401454876
C         7.53771040317211    6.79281739181524    6.44260607339979
H         8.01740788465108    7.17379057346022    5.54395005991941
H         8.09469398212645    5.92738662047114    6.79180276689675
H         7.54499529650760    7.56503021977796    7.21069254680264
C         5.18957655464095    7.98419249003663    5.56239949143689
H         5.51300996883238    8.71793505952899    6.30067697402559
H         4.10280832043016    7.96291712058105    5.51228223369953
H         5.57130745245374    8.25026240447793    4.57966649462162
C         5.09024860496866    6.22521116278969    7.71196635032457
H         5.29204777414021    7.14083099199302    8.26618543415941
H         5.50716935012267    5.37807317680139    8.25207802279166
H         4.01410159033428    6.08831467915874    7.62276994466855
C         7.40149412170860    3.04992217740538    6.89404261483519
H         7.25691102361568    3.82325061948447    7.64509856857099
H         8.24819569122822    3.32431946616448    6.26761215964017
H         7.60634071279708    2.09960067822317    7.38618250002012
C         6.27310632712300    1.30874661492204    5.04312033569905
H         7.20301279996923    1.40202054655333    4.48781614521324
H         5.47975069807362    1.04413679896299    4.34836606661636
H         6.37483535852590    0.52713364241272    5.79572863305706
C         4.69372367244641    2.34972692051823    7.10707820861443
H         5.12715636428569    1.55617175848867    7.71531274452289
H         3.80235242900256    1.97712161868128    6.60658353598509
H         4.41030124825739    3.18448114080064    7.74432703425938
H         2.85173620460917    4.20282836453784    5.69193563660272
H         3.67204566768334    2.49421059056738    4.11335759225860
H         3.60966506443498    3.72374445006019    2.77162552659081

