75
CSD_code = YIXGAO | q = 0 | S = 0 | Stoichiometry = C27H42N2OP2Zr | MND = 5
Zr        2.57994295086249    1.82734808765019    3.61402090925819
P         2.17659760715978   -0.48774899481038    2.48139551654037
P         0.17621862349246    2.61786798273149    4.30551203607998
O         1.41710633753026    2.16031192059833    1.66017993043426
N         3.12421776841278    1.19784133702283    5.45500587162193
N         4.03802010240507    3.07293014029577    2.88018529022498
C         0.87398418384491    3.27571691176887   -0.84272580798403
C         1.94936994816990    4.34505073923474   -0.56076025470529
H         1.50677897530237    5.33850054199306   -0.60591481946354
H         2.74241798659151    4.27992549122798   -1.30337405520899
H         2.38798312707483    4.20912736976914    0.42674182709878
C         0.26995544336520    3.53499054826855   -2.22138224022288
H        -0.18158433088099    4.52334689548687   -2.25325370792744
H        -0.48626444003135    2.79036997037952   -2.45948635931693
H         1.04485878163324    3.50910485292006   -2.98310126009442
C         2.29327676321674    0.12605322582941    0.77526977512904
C         1.74662239137471    1.40138285633864    0.53403757202428
C         1.51672626773067    1.90542761064949   -0.73738181634600
C         1.91015050698026    1.13592000266499   -1.82752831083300
H         1.75706588355133    1.48980090065863   -2.83298657821251
C         2.49983499410276   -0.09999337115749   -1.62434402312675
H         2.80466870480179   -0.68829477697954   -2.47772290414414
C         2.66800889508356   -0.61028627279447   -0.35283366290607
H         3.06180482502757   -1.60426293820314   -0.23157496716709
C         3.80159855394672   -1.43774583849122    2.78896691653472
C         3.95753911224949   -2.72994744237550    1.98162577522687
H         3.00624617187082   -3.25422894756905    1.90792926424091
H         4.67178252679829   -3.38900131698498    2.47565078613966
H         4.33387464787384   -2.53702537049920    0.98028619532084
C         3.73979542099915   -1.80195838342937    4.27491512177629
H         2.89401694567356   -2.46140712257817    4.46937521743450
H         3.62408257233249   -0.89382789566447    4.86840154406192
H         4.65200132409107   -2.31414435006856    4.58219519242975
C         4.98932202718672   -0.50215255170817    2.55182015559472
H         4.87623695704181    0.40596747380510    3.16498886966205
H         5.05168391111675   -0.21862580846400    1.49983497945184
H         5.92224350216967   -0.99909375553929    2.82502573059549
C        -0.52570423435895    3.07903148423516    2.67029723778806
C         0.23634197535844    2.87707106890111    1.51885752705502
C        -0.15096403271739    3.36100127820364    0.27299358137986
C        -1.39798055828198    3.96283764943354    0.16912388994067
H        -1.74441871413306    4.33742330947154   -0.78006816272940
C        -2.21454681321538    4.08554253331239    1.28127089158150
H        -3.19283678655431    4.53094052551507    1.17592101805197
C        -1.77753873288138    3.66753562342186    2.52450749708652
H        -2.40883931142559    3.77571156116364    3.39306907181402
C         0.66411497709603    4.39524615153623    4.83042118171658
C         1.40195777892005    5.11447380450146    3.69637818316159
H         2.20892719171011    4.48104237007640    3.29761681159491
H         1.83447444869287    6.04646562674916    4.06573528014690
H         0.71564775625972    5.36403363493744    2.88655179767976
C         1.60774455861214    4.21995198000371    6.02226735020479
H         2.45075752627336    3.57572141930576    5.73886433620485
H         1.07684876234183    3.75665632612971    6.85440835209751
H         1.98767781446172    5.18639866239389    6.35777522053220
C        -0.54898389321909    5.21726207899306    5.26566599218655
H        -1.19970333799432    5.42465224981000    4.42004360319876
H        -0.22697342153687    6.16975868750048    5.68720870321559
H        -1.12039158058450    4.68113537356952    6.02071126720740
C         2.13194265242592    0.63582621439892    6.35156594253785
H         2.53810485542034   -0.22875485684345    6.90558223776343
H         1.25867769808228    0.29554505881698    5.78038539637802
H         1.79369900389277    1.36663976422707    7.10945280533750
C         4.34962057928154    1.47953839668197    6.17035117010660
H         4.20959617681438    2.24376663187131    6.95982378033325
H         5.12211353468070    1.83200307532512    5.47962816986063
H         4.73279335300843    0.57423381770057    6.67634593080826
C         4.68898624913638    2.86476978052358    1.60411043256954
H         4.79133561163919    3.81766524071741    1.04978740286690
H         4.12470357897333    2.16666663244703    0.97697887821902
H         5.71628712762262    2.46660889888436    1.72482027380172
C         4.84505896212979    3.97866192660034    3.66919746831906
H         5.87163865546132    3.58953368803854    3.82528148094712
H         4.39265822533294    4.15952250462120    4.64897033848073
H         4.95798639332731    4.95514010478407    3.16020395140229

