111
CSD_code = YIXHAP | q = 0 | S = 0 | Stoichiometry = C42H66HfN2 | MND = 13
C        13.46058617997941    7.03911357697983    8.99697397472321
H        14.04007480225060    7.83766578716250    9.48180566000778
C        12.56766397241247    6.48390563711571   10.10813535915998
C        12.61680947753152    5.30237220198280   10.62437237856853
C        12.73298963598026    4.16568009853429   11.27484840519626
H        13.41486631108506    4.13529970565781   12.12025160485455
C        12.08183085930302    2.82996407400749   10.99394226486811
C        11.02232898695783    2.91370310675795    9.89639247010427
H        10.27116032159120    3.65999892788536   10.14033067955455
H        10.52777409371092    1.95095634076292    9.78040258413310
H        11.47204903721224    3.17867057162839    8.94313699371707
C        13.18030619853527    1.84453816204790   10.56582970434453
H        13.67476875790350    2.19092970035096    9.66089559810201
H        12.75439234555629    0.86187856431148   10.37180157813463
H        13.93092421734252    1.74576432708379   11.34738957372477
C        11.43662341753914    2.30864180150722   12.28593998069040
H        10.62489782110886    2.95856980409929   12.60705344542284
H        12.17051288270299    2.25681238802266   13.08799923538359
H        11.03031560853013    1.31092189117320   12.13022230378288
C        14.51786521644036    6.07514319247531    8.38371350976440
C        15.31914050991511    6.81297298923826    7.30126114879741
H        16.15492245316953    6.19568142713603    6.97806020339856
H        15.72222656946719    7.74697193876828    7.68817849337645
H        14.71122801318264    7.03270013164672    6.42800360866536
C        13.88949985091553    4.82456172103795    7.76825968789362
H        14.66893620063930    4.17372851558565    7.37696974231237
H        13.21982067155896    5.07053597792555    6.94767366149557
H        13.33420750206475    4.28136695704997    8.52515398680698
C        15.50517865645869    5.64323088811425    9.47331397310243
H        16.24437837038425    4.95992262803204    9.05999186629802
H        14.98899688908819    5.14474765190707   10.28605275573065
H        16.03022059284433    6.50542857444425    9.87686543382754
C         9.78631858486760    7.11078457753305   12.23193461507679
C         9.15451986377693    8.37182091555182   11.99095297757115
C        10.00376873776896    9.38765359952171   12.50038300097018
C        11.13009866281251    8.76600390424565   13.09624362071770
C        11.00516747203295    7.36634739786682   12.94025481467852
C         9.14924219382551    5.76252291278517   12.03816852724336
H         8.53659659435875    5.49923628829202   12.90476506922881
H         9.91063025796577    4.99446160242872   11.91719677194859
H         8.50301482821059    5.74853672541413   11.16040442528904
C         7.69815827395978    8.56225900673454   11.67281640640601
H         7.15103315600448    8.75614622874314   12.59941945826863
H         7.27102598619734    7.67219760950001   11.22049166770196
H         7.52888640531383    9.40636598125873   11.00929110706034
C         9.66971473973272   10.84636870756606   12.62616741127549
H         9.45596179379908   11.09373698266194   13.66829178662316
H         8.78877625298426   11.09584400993156   12.03886736775855
H        10.50194700995806   11.47124100281614   12.29981730602653
C        12.17692024511013    9.44282695794928   13.92560357394052
H        11.95735092094038    9.31160327505525   14.98817413919457
H        12.20967310913697   10.50784359878910   13.71299238066357
H        13.15898184761863    9.01652481534459   13.72853951184641
C        11.89109802872954    6.37004592150056   13.62986136289345
H        11.83523010627767    6.51940711124853   14.71024373045512
H        12.93259756095294    6.49158383408904   13.32992584524332
H        11.58449364963892    5.35121645089182   13.41401284132666
C         9.40588301261049    9.54768409509617    8.71871457387514
C         8.95347621563271    8.21561438439286    8.61288580490421
C        10.07165255627456    7.37888796596939    8.43341677426966
C        11.24317749362926    8.20543586762205    8.35970454164607
C        10.80749647869564    9.55603161588510    8.56470089910455
C         8.54725993190245   10.77423387233632    8.81109977731233
H         8.69645307388892   11.40886679269615    7.93514713928599
H         8.78302113178709   11.36399391529151    9.69608302368912
H         7.49311694636170   10.51053440052159    8.84325840786386
C         7.53595982058813    7.74964755239370    8.45690711452883
H         7.31820434301345    7.58910541044744    7.39854996646143
H         6.82194449598393    8.47579371559311    8.83538679156528
H         7.36728051547063    6.80286448153606    8.96876695269970
C        10.01403372815630    5.93113997746190    8.03632760904512
H         9.85242119510097    5.84242067248893    6.95857507580300
H         9.18952465830572    5.41894699686593    8.52926048041548
H        10.93965717307799    5.41958740168054    8.28657428429075
C        12.58786744655882    7.71192189457334    7.89381172346387
H        13.14840207209766    8.54301366526893    7.45800468308494
H        12.41106067504828    6.98922865940928    7.09371479140255
C        11.68865078028562   10.77455469682604    8.58702209825966
H        11.14935625988698   11.62901164181180    8.17872768590732
H        12.57632654182403   10.60578757930201    7.96642941481494
C        12.53175684421916    9.80976386113288   10.70376995542993
C        14.90060560676802   10.15735218122802   11.18525798845712
C        15.26211207734443   10.69105346357284    9.79431675781810
H        14.56083487324008   11.46062727885817    9.48633526898591
H        15.24435886992389    9.88587914093734    9.06113024617806
H        16.26154049471612   11.12016189709658    9.81007568672361
C        14.81883029126725   11.31845093057553   12.18245424271661
H        13.96349294183634   11.94398566135358   11.94214298179948
H        15.73025711521822   11.91120117962311   12.13633246123074
H        14.70333088266480   10.93791794268012   13.19383925534894
C        15.97236662840467    9.16409204947880   11.64782883070645
H        15.67124834177652    8.70497496350516   12.58553491263239
H        16.92392688732364    9.67006226788308   11.79184099107259
H        16.10392188896969    8.37538170178468   10.91203132222897
C        12.17294681280453   11.06805562120709   10.01192176486681
C        11.90348911172809   13.50748152684454   10.24179049288444
C        10.42279749386231   13.73049908221860    9.90750833393459
H        10.13737612866169   13.24179289660414    8.98131241349284
H        10.23496102679076   14.79640837770144    9.79786007986183
H         9.79749876374214   13.35301324127455   10.71337430484318
C        12.78195097987654   13.94205017605016    9.05894787746967
H        13.83293942640660   13.81008866897972    9.30876041059122
H        12.60923632094716   14.99346000777664    8.84085773125348
H        12.56453784611586   13.36443478035741    8.16434620038808
C        12.25451046653126   14.37811218765731   11.46020053706536
H        13.30390992297807   14.25847964696572   11.71651015337210
H        11.65733298634587   14.07486589597315   12.31643126971497
H        12.06265929373880   15.42735458134449   11.25044926331269
Hf       11.19922023651438    8.10950506923270   10.62327137547665
N        13.63702975550918    9.41322627684140   11.17373445932290
N        12.20959043222252   12.15540150962235   10.65902123178817

