51
CSD_code = YIXHET | q = 0 | S = 0 | Stoichiometry = C16H22MoO10P2 | MND = 6
C         6.84353250090297    4.01591032182410   11.46387394687143
C         4.37664189777286    4.34755252652789   12.73147996246053
C         4.12535691059412    1.54608164510234   12.81226320180158
C         4.50589147271648    2.86865229441871   10.38237500573896
C         7.65254658834069    3.98282722662630   16.08721296086001
H         7.09086388385872    4.33581200599277   16.96047668713381
H         8.48478425646153    4.67068988426607   15.89922395220740
C         8.96790546714172    2.14118892543109   15.08206503056113
H         9.86314208752166    2.76239556401624   14.96649097658304
H         9.27601891294035    1.09063331106162   15.17005234080860
C         6.94960464074916    1.63221980114580   16.41886757587393
H         7.27035417867441    0.60033186121022   16.60876369244156
H         6.29729050213384    1.95129282864461   17.24174886884681
C         8.17123278433331    2.55945400917359   16.32397831405058
C         8.99444669731300    2.43985790698270   17.61345115504039
H         8.32552809281458    2.61716043815786   18.45887080225088
H         9.35409378490952    1.41087377076879   17.69102349259481
C        10.18298311417974    3.38958988751057   17.72339602159689
H        10.88087402580227    3.24977946409575   16.90295522066195
H        10.71276399151366    3.19281408145686   18.65208467536198
H         9.85856886226546    4.42589515661779   17.73483619720306
C         6.97565742482818   -1.06857627683160    9.95666165665436
H         7.32061759961514   -0.84092576314992    8.94157585982037
H         6.37413563152154   -1.98471696007313    9.93140787862962
C         9.01809168622821    0.03904379247485   10.81011938083288
H         9.79197143195312    0.03927897370532   11.58878683108599
H         9.50337410693361    0.11126548817572    9.83125885224048
C         7.60502602559125   -1.29568692153668   12.33689389938150
H         6.86580279079387   -2.10338206640290   12.41685820664181
H         8.41323477557283   -1.49125684722946   13.05286275165595
C         8.16734388686744   -1.23354894311498   10.90800243958651
C         8.97907644452281   -2.50391874228034   10.62417242500149
H         9.84652884789894   -2.50781387411127   11.28872873354417
H         8.36127237155206   -3.36642200615822   10.88552507542172
C         9.45650393026772   -2.66288281805053    9.18429407885052
H         8.61774978797750   -2.74742987403519    8.49971581947766
H        10.05140682481624   -3.56908288394903    9.10225833162752
H        10.07616788844078   -1.82558685026483    8.87669148336936
Mo        5.41850048839018    2.83235903040555   12.09906836997418
O         7.72088013621741    4.66607209022692   11.14111318082258
O         3.77809986969190    5.23190820873811   13.13085147318473
O         3.43025404652156    0.75482003715771   13.24481795312971
O         3.99047586913607    2.86647797992611    9.36533130437042
O         6.78106973341419    4.03972637274811   14.95968237808304
O         8.19963712136736    2.28539143501755   13.89037244899298
O         6.18161235218161    1.62933159405717   15.22002685793066
O         6.11942948381748   -0.01061029185196   10.38162432281695
O         8.22048981983421    1.21088627560504   10.96233501610319
O         6.98456571060683   -0.07320593898629   12.71899541695964
P         6.63791195701235    2.68568918531673   14.08154949559598
P         6.71548730347823    0.98378368346889   11.51492799725658

