103
CSD_code = YIXHOE | q = 0 | S = 0 | Stoichiometry = C39H45N12O6Sc | MND = 6
Sc        9.59436039978368   16.61717999630440    1.67862540899274
O         8.16386493687757   15.71977778363125    0.62701427644068
C         7.06280967494746   15.22385937886980    1.01641291141750
O         8.05724421071986   17.16197922100465    2.85488839434958
C         6.43477561915852   15.56906470989354    2.22459538720850
H         5.51606122098422   15.07826511025162    2.49605987096631
C         6.99285353730206   16.51237811673119    3.10099983879811
C         6.42741291690693   14.23568891853933    0.13924221484127
C         5.19466507210720   13.60914824974748    0.23652730868220
H         4.40540942702190   13.69906970519784    0.95542774288629
N         5.08607913353388   12.78056299254815   -0.81503442710216
N         6.17055753112202   12.82181225442960   -1.59257947562957
C         6.99770561784958   13.69233838511197   -1.04631959450242
C         3.98736046770955   11.92259029689312   -1.14986060872750
H         3.81334489980001   11.18946975404688   -0.35944632238534
H         4.24454227255073   11.40545105604502   -2.07170489407043
H         3.07570516916543   12.50384218211855   -1.30253110829305
C         8.31683631031970   14.00758305269627   -1.64510553117469
H         8.51116907035014   13.33789948291235   -2.47921179850068
H         9.10135261880816   13.91618426666113   -0.89336659649516
H         8.32683103578402   15.04065199673136   -1.99186947027476
C         6.31988919889350   16.77838691710481    4.37750817186086
C         5.16429624955580   16.22461344007089    4.90713166275159
H         4.47687671393473   15.50250575560004    4.51549149394624
N         4.98321819600326   16.76646594537264    6.12229893870341
N         5.94676672881045   17.63860209101985    6.42414307394494
C         6.76907050069074   17.66881737290340    5.39276643822717
C         3.92586922329386   16.50252901075751    7.05383032618119
H         3.91507567574135   15.44802188209367    7.33657857766476
H         2.95687214873464   16.76544614805695    6.62451872193927
H         4.10682919788349   17.11131496215562    7.93694693659796
C         7.97173685209571   18.53651463695071    5.37903486552566
H         8.07262337431774   19.03947239214328    6.33758757378553
H         7.89363741414278   19.27357773239511    4.58018761650948
H         8.86128086631677   17.94080089856499    5.17657108701199
O        11.08679820336767   15.82695214292032    0.62723969399616
C        12.06710355001051   15.12196448084671    1.01695830031961
O         9.89126805956581   15.01378428594915    2.85507107901529
C        12.08224890386764   14.40562398327221    2.22523050716719
H        12.96680296491739   13.85573040922742    2.49688660429728
C        10.98616842199104   14.41716492208059    3.10150119580236
C        13.24063525347072   15.06600393704052    0.13985810766284
C        14.39957599358658   14.31162456746039    0.23696353308285
H        14.71627816546698   13.58296642181906    0.95570520403770
N        15.17150910560832   14.63217321218656   -0.81446377830413
N        14.59360787082709   15.55100898117852   -1.59174909431976
C        13.42598979856185   15.83170629391248   -1.04562613506380
C        16.46392865175967   14.10979919981464   -1.14937491014446
H        17.18578860545781   14.32546330339175   -0.35885771653886
H        16.78320955401202   14.59140314869984   -2.07105805469768
H        16.41645746170143   13.02969109857958   -1.30238878041081
C        12.49334662058146   16.81652067500517   -1.64424651280020
H        12.97626487371029   17.32018400211606   -2.47796994225067
H        12.17978337940001   17.54120568106307   -0.89228594601517
H        11.59395826532120   16.30850412989485   -1.99152796457359
C        11.09213146052071   13.70128751286465    4.37797784318534
C        12.14933888855504   12.97716236660472    4.90760739814191
H        13.11836439372650   12.74267639986795    4.51597361270051
N        11.77062148127222   12.54974107095367    6.12289233656759
N        10.53354758583807   12.94820658793386    6.42463988215796
C        10.09643220902619   13.64540162780279    5.39329215395646
C        12.52764077576724   11.76572294624777    7.05437088349027
H        13.44662129022595   12.28311334213861    7.33689861829607
H        12.78372975667186   10.79496144912631    6.62494881804021
H        11.90996440707698   11.61839558953353    7.93756579387748
C         8.74376142407377   14.25334839680386    5.37945579980159
H         8.25781546524281   14.08978918326443    6.33813919079047
H         8.14435911002556   13.81676231035003    4.58094534257993
H         8.81493010379390   15.32145431610077    5.17633582131989
O         9.53221750666291   18.30476411791640    0.62706430618663
C         9.65246544545749   19.50624648730444    1.01676591035527
O        10.83469393892945   17.67620796066560    2.85467083822964
C        10.26542409924305   19.87764170276690    2.22492619349268
H        10.29920070062750   20.91863697239914    2.49659451541048
C        10.80378472667149   18.92272764087452    3.10110353634962
C         9.11395601143091   20.55047586732744    0.13971513809147
C         9.18782112081038   21.93134320641533    0.23673387797122
H         9.66062650831755   22.56995848131114    0.95538535202200
N         8.52410503304845   22.43954126506403   -0.81461903844853
N         8.01720826140641   21.47960109037939   -1.59178782865148
C         8.35796699158373   20.32809400172150   -1.04563858356682
C         8.33020436203776   23.81997463982833   -1.14956600279524
H         7.78261035255351   24.33732441197353   -0.35899637287568
H         7.75335409250542   23.85562395546538   -2.07117138744755
H         9.28930891894882   24.31893338913991   -1.30273414190624
C         7.97132156585414   19.02795689630047   -1.64412072518690
H         7.29354321899448   19.19428027057322   -2.47774747884521
H         7.50063457589692   18.39410772371530   -0.89204458372493
H         8.86092369309491   18.50306456068838   -1.99151656162365
C        11.37063002062795   19.37248193965010    4.37762670410714
C        11.46930995808588   20.65015066414345    4.90712997456536
H        11.18804368139919   21.60659080499294    4.51535985013503
N        12.02882340884668   20.53593759805628    6.12242212238590
N        12.30199820559409   19.26534002562113    6.42434416203092
C        11.91666390224228   18.53814071267680    5.39307642838339
C        12.32951055797381   21.58361288049885    7.05375489634115
H        11.42211677657946   22.12129358686945    7.33583794343053
H        13.04268264247821   22.29033957176428    6.62444661451879
H        12.76539621895657   21.12234742801258    7.93721535447457
C        12.06610477995387   17.06267876623579    5.37943004010435
H        12.45024682770602   16.72356689192662    6.33828677835926
H        12.74410564367942   16.76157906369857    4.58120277954664
H        11.10543071361371   16.59057135225249    5.17598149148611

