48
CSD_code = YIXHIX | q = 0 | S = 0 | Stoichiometry = C23H15MoO8P | MND = 6
Mo        0.12130412669207    8.01108065349565    3.84559141524675
P         0.43663938951645    6.31289297491840    2.19218962686215
O        -0.16317828037616   10.10427735773823    6.10133528478385
O         1.94095324758756   10.05136405831080    2.37636919903878
O        -2.34107916258181    9.32087051663285    2.49023225229781
O        -1.65478841296056    6.09112027814366    5.51753213060512
O         2.63328247473715    6.81428052848144    5.22428068125257
O         1.25436230262642    6.60026462773663    0.84646035093285
O        -0.82749158053279    5.54808456136814    1.53004772808243
O         1.32640989310150    5.14419578921829    2.82739496366485
C        -0.06523440651479    9.33735580817620    5.26524979628596
C         1.27290505547381    9.27581256990571    2.87572579721239
C        -1.44751567243641    8.80026505345795    2.97047870367120
C        -1.01504547984003    6.77412628844492    4.86821002870359
C         1.71376292748777    7.25025293932951    4.71882818746598
C         1.18886665212302    7.81777183790901    0.20147087310417
C        -0.01468266563898    8.48710303018515    0.04670397122270
H        -0.92277341686656    8.02591526610539    0.40888976187356
C        -0.03897540102731    9.71119498617978   -0.60021742896763
H        -0.97595766535973   10.23507044651982   -0.71319891345726
C         1.13174368103633   10.25848716176736   -1.09528958686036
H         1.11206605008625   11.21626491395758   -1.59202461651562
C         2.32855337301373    9.57473019898014   -0.95520161652651
H         3.24228446723005    9.99760177262402   -1.34379843084832
C         2.36440987164672    8.35404446377850   -0.30596788483550
H         3.28950398190332    7.81413786506442   -0.17519071832522
C        -1.90375001756926    5.19695856787538    2.32803807353802
C        -3.04186842211640    5.99071095274994    2.31858033384069
H        -3.07574028395555    6.86724753356447    1.68912146490352
C        -4.12816663366152    5.63710769497629    3.10009610341085
H        -5.01066477171411    6.25853030064674    3.09645103109880
C        -4.07969645157323    4.49848950225729    3.88586833594040
H        -4.92440328158506    4.23080988377980    4.50178583174394
C        -2.94662643723534    3.70287360878087    3.88021667065260
H        -2.90570698713704    2.81210091203338    4.48827646399555
C        -1.85405487986122    4.04788628378342    3.10397050493759
H        -0.96690326163169    3.43161452267498    3.09105039821933
C         1.52543522804193    3.85284416284697    2.36473118306426
C         1.39643029735399    3.49017062586419    1.03400305361723
H         1.13145422396194    4.23347415626469    0.29889291207557
C         1.61278269195166    2.17256485186209    0.66518029031498
H         1.50926526430463    1.88996930486296   -0.37161000312071
C         1.95944167818967    1.22487131333504    1.61194359482033
H         2.12654576836454    0.20018875876756    1.31692201298123
C         2.09313568277140    1.59561195072339    2.94024794153040
H         2.36508734401836    0.86249446195305    3.68447121908068
C         1.87388064494527    2.90629259528641    3.32152163516101
H         1.96789725401153    3.21572210668179    4.35133939222468

