47
CSD_code = YIXJOE | q = 0 | S = 0 | Stoichiometry = C16H22Cl2N2O2S2Zn | MND = 4
Zn        2.78062110651563    2.78000484737835    0.00035513847525
Cl        3.07489834688445    3.94793167511733   -1.86620560924038
N         0.85501431094321    3.03266865876110    0.45424841297675
C         0.41583099639242    3.63232102406559    1.70788606891025
S        -0.32219872156576    2.73487668574453   -0.54066503009253
O        -1.40001033255575    1.96066779925522    0.02955024201698
C         0.36914628593414    1.88080446161843   -1.95944896333193
C        -1.02950803789716    4.26049975604912   -1.18513977726292
C        -0.20442735748499    5.17849546050194   -1.81013318470793
C        -0.75982406648204    6.35765750434566   -2.28042619591479
C        -2.11445826038131    6.60475632727994   -2.11843907385228
C        -2.92649181624687    5.67593413817958   -1.48636763650487
C        -2.38163095356590    4.49378346064927   -1.01390034576599
H         1.23490328140027    3.58291068247149    2.42020381792873
H         0.13973307112249    4.68133744181122    1.56123334165850
H        -0.44697821607695    3.09132598829083    2.10551707965244
H         1.17289139461514    2.48508227404261   -2.36986304674785
H        -0.43778606224853    1.75545118324160   -2.67344246732849
H         0.74051066897704    0.91707855114731   -1.62871892394976
H         0.85077530528461    4.97806000576062   -1.92485297862932
H        -0.12966882506044    7.08284986311864   -2.77123521008620
H        -2.53986826868653    7.52715840510511   -2.48456852014765
H        -3.98034393992576    5.87120979524556   -1.35932626347449
H        -2.98082926866707    3.74799461991008   -0.51556033207745
Cl        3.94725415792197    3.07313122966072    1.86807544596331
N         3.03173083106670    0.85442319956500   -0.45431559498728
C         3.63134474320417    0.41517822410221   -1.70793947164388
H         3.58204761868380    1.23428803784722   -2.42021974710333
H         4.68031111009462    0.13888243796667   -1.56130860215370
H         3.09020797882231   -0.44754544569548   -2.10559118564893
S         2.73438790442802   -0.32293799156086    0.54073091062391
O         1.96052293136884   -1.40086432243641   -0.02971077267988
C         1.88001288570774    0.36805302090643    1.95944742716147
H         2.48390863411485    1.17204333708806    2.36997956051996
H         1.75501910140855   -0.43898089350492    2.67340870377795
H         0.91609309476449    0.73895583762810    1.62873627132805
C         4.26024528982399   -1.02982813393725    1.18501539471784
C         5.17811138164705   -0.20433555597567    1.80962615557842
C         6.35753019270132   -0.75925120594512    2.27984058050964
C         6.60493072965943   -2.11386839004097    2.11825613419603
C         5.67622074232135   -2.92632657217070    1.48655371247873
C         4.49387229310646   -2.38192928169745    1.01405507069466
H         3.74823327962974   -2.98147238686070    0.51590462140569
H         5.87175137600827   -3.98017044920559    1.35982512003493
H         7.52749025098227   -2.53893242977472    2.48438229307885
H         7.08261626180569   -0.12869578746862    2.77028448721571
H         4.97735656950423    0.85082291242547    1.92426294242303

