97
CSD_code = YIXKIA | q = 0 | S = 0 | Stoichiometry = C46H42N4O4Pd | MND = 4
Pd       10.01439651311969    2.15869093374183    4.70967550206325
O         9.96136945330972    3.67677131345792    3.25578082167753
O        12.12011165148666    3.28310023401970    3.50528266107442
N         8.52676123902405    0.52004948065854    2.83287357235518
N        10.64624877209331    0.04394184034430    2.66465438573722
C         9.75236945749164    0.82516011870918    3.30660675543532
C         8.62155369599744   -0.48983763822499    1.90199639113230
C         7.67394162986619   -1.17856977304074    1.16126890469368
H         6.62554506732849   -0.94394749974320    1.23430675536529
C         8.13091939575686   -2.17977381614015    0.32472298031694
H         7.42095754269903   -2.73875161496845   -0.26537347576918
C         9.48567243578906   -2.48911126913641    0.22415182023301
H         9.79687395291211   -3.28131050201522   -0.43950580070558
C        10.43931527909480   -1.80695293513985    0.95687120227242
H        11.48671046734198   -2.05502328330931    0.88555055962110
C         9.98888632506430   -0.80180856780468    1.79755140908310
C         7.31077879815443    1.24564524443000    3.15115634552208
H         7.56831951876171    2.00922316244646    3.90963786244161
H         6.57409256062049    0.54837456923466    3.56037758464276
C         6.76080402135479    1.92224409982245    1.92144279375192
C         7.51024858864642    2.90759357280755    1.29077084191138
H         8.45642439242324    3.20617600572232    1.72041281762580
C         7.03128677990812    3.51957159965293    0.14707003273069
H         7.61652961253710    4.28703008238490   -0.33771902746107
C         5.79909099434016    3.15756335182613   -0.37274350255396
H         5.42488471309248    3.63721160856465   -1.26533102730911
C         5.04169384731274    2.18838127961732    0.26148329591900
H         4.07468743910260    1.91225927419172   -0.13342305318529
C         5.52231482592587    1.57100937799265    1.40353046781260
H         4.92385574034375    0.82042010415946    1.90263189238594
C        12.07787533828605    0.16223788993819    2.78499537032093
H        12.29058694116346    1.17220343731520    3.17482864907701
H        12.51344787645848    0.09556818798900    1.78140184524640
C        12.71490781770286   -0.87094683047448    3.67835476498678
C        14.09584637415779   -0.84985088847553    3.85132902452149
H        14.68260725863873   -0.11004520359329    3.32682792137509
C        14.71176566500157   -1.75521732260195    4.69583461268924
H        15.78413619938715   -1.72749384250177    4.82210345389094
C        13.95607072519567   -2.69070564614763    5.38512533663088
H        14.43467168081789   -3.39069058306881    6.05316445386737
C        12.58484762680687   -2.72655855170450    5.20823864264243
H        11.98855988375991   -3.45524911865126    5.73767299790803
C        11.97120036617724   -1.82625443945847    4.35353212935937
H        10.90296162258908   -1.87164322798009    4.20650491912314
C        11.17825005894714    3.97336950107862    3.08384513612560
C        11.46174772861363    5.21886475820104    2.25175759695824
H        12.47703639415946    5.55947745733172    2.43161407576102
H        10.74794500620292    5.99951831758009    2.50027882655273
H        11.34913723612788    4.96779720010922    1.19805377995144
O        10.06721784868455    3.67666770254510    6.16368555854674
O         7.90845931047674    3.28310528547370    5.91412715301371
N        11.50182962995285    0.52008212240064    6.58655183373336
N         9.38235042231955    0.04392120512851    6.75472139272886
C        10.27623335477875    0.82514670662202    6.11277316042505
C        11.40703466682895   -0.48976796752275    7.51746742737893
C        12.35463855100330   -1.17843909065736    8.25825893038339
H        13.40302976845659   -0.94378269213478    8.18525006810031
C        11.89766366314562   -2.17962717360684    9.09482568199591
H        12.60762396988031   -2.73855666788531    9.68496604239739
C        10.54291658066279   -2.48900397669219    9.19537050986858
H        10.23172154268705   -3.28120263833420    9.85903378868361
C         9.58927832988097   -1.80689842368554    8.46259501040539
H         8.54188896068869   -2.05500896738491    8.53387853011499
C        10.03970735463226   -0.80177244260214    7.62188801212244
C        12.71780231033955    1.24567937865661    6.26823684708490
H        12.46022148921636    2.00926465421076    5.50977243562436
H        13.45448089063596    0.54841056429207    5.85899503239668
C        13.26780935539937    1.92226831146991    7.49793952888028
C        12.51836676649252    2.90758920826907    8.12865531003925
H        11.57220406466244    3.20620806352055    7.69901081973284
C        12.99736376849337    3.51957345700680    9.27233751497022
H        12.41214453474682    4.28705031047811    9.75712633263247
C        14.22960673671045    3.15761945957362    9.79207377079563
H        14.60381221141178    3.63722212734479   10.68468678585959
C        14.98698815443960    2.18844058138123    9.15782164858818
H        15.95398225485872    1.91227832516728    9.55273184232817
C        14.50632154258058    1.57104604021130    8.01580562595382
H        15.10476455963928    0.82045653183234    7.51668677066177
C         7.95072270615178    0.16219996463089    6.63437488326644
H         7.73799509747397    1.17215603091167    6.24453103068603
H         7.51515396990190    0.09554036010879    7.63797029215931
C         7.31367923103590   -0.87100155673063    5.74104547324980
C         5.93275791324378   -0.84977755450991    5.56794760080553
H         5.34603115543852   -0.10985691030908    6.09232554668281
C         5.31681942798964   -1.75515204485738    4.72346503397950
H         4.24446196705754   -1.72733366226909    4.59710785524813
C         6.07248099994674   -2.69076860351344    4.03431267968432
H         5.59386509646682   -3.39077909145136    3.36631034249900
C         7.44368307354903   -2.72675377162073    4.21133157629498
H         8.03994154402619   -3.45556391090066    3.68202922162274
C         8.05734769820555   -1.82644914944595    5.06602529169302
H         9.12556653096014   -1.87195073743107    5.21316054083488
C         8.85034559832383    3.97321572448831    6.33577320140407
C         8.56687956612607    5.21867764995721    7.16791901630924
H         7.55200593385169    5.56005222159433    6.98714609086557
H         9.28148718177455    5.99891321728168    6.92042032354747
H         8.67816620368894    4.96715037984253    8.22165532791333

