43
CSD_code = YIXMAT | q = 0 | S = 0 | Stoichiometry = C19H16CrO6S | MND = 9
Cr        1.92088772295277    1.47877619979147    2.71973777914102
S        -2.16572494799879   -0.45658791045550    6.12186670105171
O         1.07063574559532   -0.72046073708270    6.54183151434582
O        -2.30683385925605    0.96312952843874    5.95924477220207
O        -3.29727438449906   -1.29506685496330    5.82276034835903
O         0.84899012644465    3.78902538844399    4.25685421644587
O        -0.28761587499106    2.36535875576378    0.93592233759422
O         3.27681343416636    3.70258651459076    1.27875081312378
C         0.45379981500419   -0.21798936447486    5.37076457462505
C        -0.80012019923754   -1.00016214793125    5.01514410667138
C        -1.25456175570758   -0.72219348885937    3.59618503498529
C        -0.20118280879383   -1.22100201839632    2.61170133753432
C         1.14617670399414   -0.63601809304341    2.93477741024376
C         2.16021700767371   -0.62953303673525    1.94548368670716
C         3.43245085389003   -0.13894249405198    2.23040354331487
C         3.72604967170567    0.35335435916176    3.51894253887131
C         2.73193164503052    0.35668681051694    4.49344506993055
C         1.44136728422068   -0.15698152982933    4.21722367594424
C        -1.61270507890676   -0.80902872568900    7.79275580505363
C        -1.69846883012859   -2.10587085645662    8.26018699243861
C        -1.25338543096987   -2.39126104477132    9.54010177899943
C        -0.72871863345772   -1.37882466233157   10.32861784055121
C        -0.65455931399730   -0.08055308271728    9.84883228885411
C        -1.10015697209048    0.20984279433278    8.57029786122798
C         1.27201133779358    2.87639088771569    3.69393675852562
C         0.56451818243487    1.99042662730567    1.61850001760455
C         2.79109954667201    2.81706366768205    1.83738124995324
H         0.14592815648075    0.80295124824482    5.63717654693055
H        -0.67488551214765   -2.07010962074827    5.19717848050463
H        -1.39570001632234    0.35551570925339    3.48086982140123
H        -2.21416630804189   -1.21186289175011    3.42637899729380
H        -0.14312832289974   -2.31560331027460    2.65644350922250
H        -0.48514411061744   -0.94863451546078    1.59301095868141
H         1.95186185532536   -1.07364671370317    0.97901494667453
H         4.21786088788016   -0.20211575781479    1.48695422681272
H         4.73203698993578    0.67195810094736    3.76113289308970
H         2.95522486784054    0.66276653404665    5.50910616650592
H        -2.13130620870547   -2.86521382816623    7.62735853466615
H        -1.31766080354389   -3.39886314619541    9.92265486974284
H        -0.38113758476300   -1.60329904187632   11.32614042463453
H        -0.25138996817319    0.70401787504623   10.47057065463871
H        -1.06920565435095    1.20922189240176    8.16729975075133
H         1.39157074455693   -1.61514801990519    6.37385916414930

