61
CSD_code = YIXRUU | q = 0 | S = 0 | Stoichiometry = C28H26ClN2OPPdS | MND = 4
Pd        0.92699489583799    5.97841635297082    7.35061063906873
Cl        0.07542219113321    4.47978294746134    5.86812494616576
S         1.77963535096709    7.60458800532773    8.78346743385270
P        -0.21897913954652    7.37220870621546    6.08332179312127
O         1.74557289343123    4.40291596671522    8.42908601242964
N         2.91761320305158    5.51675273159108   10.06001858312405
N         4.16331931809775    7.40921846900705    9.89514755649820
C         2.17426110079123    4.52254602541337    9.60086480270957
C         1.96037800324158    3.40392582726434   10.55157349431558
C         1.21047590110465    2.30606141503513   10.13690075057935
H         0.81176228079819    2.29606121622040    9.13274760575375
C         0.98663976759928    1.25357935275661   11.00373074049820
H         0.40633031999180    0.40240884041457   10.67920809925165
C         1.50535433064950    1.29113543459979   12.28807050137994
H         1.33036058454652    0.46790401550179   12.96558088532489
C         2.24730865014083    2.38505180056067   12.70640009262916
H         2.64778465608535    2.41317218028028   13.70953905023059
C         2.47576272949934    3.44003969136216   11.84390480243912
H         3.04826715556671    4.29913890673378   12.15815270499678
C         3.03949962734877    6.73733253227804    9.59416881155553
C         5.22145733372554    6.78703034620659   10.65366976807142
H         5.39192756596373    7.34084578476622   11.58018628255295
H         6.14580698741820    6.78053025137286   10.07100836924803
H         4.93518525795752    5.76514661371475   10.88740856608564
C         4.34965541221128    8.80577161968089    9.60045862720998
H         3.71370063201558    9.09718101554362    8.76623286016378
H         5.39435966556976    8.97819888585774    9.33941640087182
H         4.09240111391862    9.42581914770988   10.46455933830941
C        -0.34554005072211    9.12960590726328    6.54673669894973
C         0.82578174755862    9.88095292075575    6.48421480202817
H         1.73571999628664    9.40556044191743    6.13800338153988
C         0.82165276225436   11.20753055093118    6.86628627132228
H         1.73150847942131   11.78779105178387    6.81853443382447
C        -0.35193599261909   11.79281357155596    7.31711777840269
H        -0.35592367115989   12.82962967179559    7.61939289246262
C        -1.51686334189809   11.04811165112196    7.38577429839111
H        -2.42972142817944   11.50404591662542    7.74047225849657
C        -1.51738102304617    9.71660313665447    7.00635269251131
H        -2.42613161583123    9.13371615449623    7.06524423650821
C        -1.94202405612002    6.80494536224241    6.08102289907904
C        -2.35681863833135    6.26585770641541    7.30024876903686
H        -1.63589567886521    6.19885215163373    8.12665821149654
C        -3.64817548562700    5.80071200277189    7.44829739191830
H        -3.96991322594413    5.38061432862829    8.38978232687973
C        -4.52801435430372    5.86098520088479    6.37699135996542
H        -5.53615800409460    5.49002647831033    6.48805283412549
C        -4.11200831132518    6.37751686937332    5.16221971569985
H        -4.79470166773297    6.40496350793177    4.32560014693212
C        -2.81985562362687    6.85353814092191    5.00852223395718
H        -2.49204679050067    7.23541624615705    4.05361431602548
C         0.47562366502170    7.50353679792968    4.41439258150082
C        -0.07845032074710    8.32141343897536    3.43472828043785
H        -0.97036621929643    8.89351206012238    3.65080000292849
C         0.52888341372033    8.41380882517939    2.19544539387001
H         0.09368976501729    9.03779463100286    1.42846619419918
C         1.69766048253791    7.71447249481666    1.93903273666160
H         2.16588221447599    7.78840472607055    0.96860408520702
C         2.27478337652388    6.93297867866382    2.92749395413937
H         3.19593939158980    6.40526263102915    2.72987832264970
C         1.66842551073761    6.82926378476300    4.16606776854003
H         2.11061690572953    6.21589887854617    4.95879121185353

