105
CSD_code = YIXRII | q = 1 | S = 0 | Stoichiometry = C54H43N2O2P2PdS(1+) | MND = 4
C         5.93364452146268    1.71918439258677    6.68355209540881
C         5.20189536569942    1.28992994515411    7.86381166434273
C         5.61540228737558    0.48729694368322    8.90375647077481
H         6.58361856631743    0.04252489018583    9.01170359538513
C         4.51426323079013    0.38565358177222    9.77310247716743
H         4.46474188429875   -0.15945091070526   10.69267925407610
C         3.51828571895451    1.12788974458426    9.20188912558864
H         2.51270502714307    1.32953024187808    9.51580735953729
C         5.51398090308853    2.81546089849294    4.62592687557002
C         4.95245205850159    4.22858974810609    2.74127398315830
C         5.57624085731679    5.32136562332809    2.15113458152143
H         6.19946031853426    5.96819375718912    2.75147728674624
C         5.38526470069495    5.57547444942843    0.80549748364295
H         5.86698422993984    6.42676729046283    0.34893234021707
C         4.57665346429232    4.74338694680212    0.04838588350023
H         4.41977507764149    4.95124074171941   -0.99930095704735
C         3.96002293178719    3.65213095623706    0.63803075818962
H         3.32521118629710    3.00517305955600    0.05251985102744
C         4.14113920327375    3.39309825465526    1.98410266055216
H         3.64572221695771    2.55628833944521    2.45256666989760
C         4.82073020782551    5.08327334420316    5.00052812359192
C         5.64103245693014    5.37916400729147    6.08209399011887
H         6.52243413784628    4.78457887245512    6.26960973291048
C         5.32678058100924    6.43733128460980    6.91457778155660
H         5.96260246132675    6.66121437216782    7.75808364005396
C         4.20492483185771    7.21046833257387    6.66786226557170
H         3.96276769866541    8.03526051804603    7.31983209638992
C         3.39598521263531    6.92354833253128    5.58073603924260
H         2.52081249688161    7.52314047910123    5.38351265131852
C         3.69865753013148    5.86352161297659    4.74655776900683
H         3.06567136418976    5.63193259346737    3.90311371187696
C        10.18706057248337    2.50125039034711    2.40207631620209
C        11.04991152224421    2.59894706679396    1.31478055317187
H        11.09320743363147    1.80206589467399    0.58611954208756
C        11.82939655291398    3.73174407813840    1.16242563966198
H        12.50793945454322    3.80709418530795    0.32635184688264
C        11.73461786169994    4.77385287665898    2.07231173277884
H        12.34778260538184    5.65309026789530    1.94751142261401
C        10.83979948498331    4.70023473198079    3.12866945548459
H        10.74819761889219    5.52393434679059    3.82088592405091
C        10.06437567313802    3.56659343030948    3.29114028488598
H         9.33535374305238    3.49757318234667    4.10528638104327
C         8.17499119921485    0.97972820769907    1.12961848011037
C         7.95238151599696   -0.22037152015621    0.46341017441428
H         8.36323449713434   -1.14263435152507    0.84937095106923
C         7.20654741878259   -0.22718194872592   -0.70231835308760
H         7.03497345017607   -1.15846232345043   -1.22055294945730
C         6.68178321755693    0.95287104078061   -1.20216948664130
H         6.10068101967208    0.94103450374173   -2.11151251655629
C         6.89976041509007    2.14913475401621   -0.53618777088162
H         6.48977157852315    3.06939437281486   -0.92221241716808
C         7.63753947831406    2.16540386002830    0.63060124245337
H         7.79726932421944    3.09464791764601    1.16293506559837
C        10.05128039156563   -0.48113031313431    2.73457127149115
C         9.33345690917131   -1.53148860920916    3.31051130819392
H         8.30690182679010   -1.34479757859037    3.64397231622686
C         9.90239432277656   -2.78471736625986    3.42197532924404
H         9.34642047817833   -3.59860738483006    3.86254474655255
C        11.19420577506098   -2.99258589290250    2.96070475728672
H        11.64350046819471   -3.97006462340458    3.04469730155243
C        11.90893359807671   -1.95085669027700    2.39422536767030
H        12.91411811314487   -2.11756013467737    2.03853235766666
C        11.34367902406523   -0.69137790925124    2.27772686624865
H        11.91292096258978    0.11911136509102    1.84984386531216
C        11.55021793672478    0.36078555123593    5.48095226769363
C        12.38644077040659    1.25572348312808    4.81677005859681
H        12.05485888658819    2.27194272475998    4.64839480259721
C        13.63713677928433    0.85047744643063    4.39302249746726
H        14.28517109149134    1.55002627625423    3.88667095285642
C        14.06023340119081   -0.44950611281712    4.62393970609525
H        15.04058770961030   -0.76287829993313    4.29942882488293
C        13.22682511810853   -1.34455138370058    5.27367183349196
H        13.55615439816895   -2.35622490387127    5.45545933140605
C        11.97181248700144   -0.94602831160034    5.69816457028928
H        11.32242168622011   -1.64535179675485    6.20537360305782
C         9.39166208046722   -0.30441496108679    7.23634973882719
C         8.40387874447417   -1.20949008456421    6.85262966935600
H         7.95140388948699   -1.12698562857941    5.86071173656749
C         7.97267951894492   -2.18112948213728    7.73643332730248
H         7.20267077318301   -2.87837814888441    7.44176945425613
C         8.52064263942092   -2.24987640245373    9.00860426688297
H         8.17918906478409   -3.00334566214515    9.70187402268697
C         9.49511103852948   -1.34410440191066    9.39609003984940
H         9.91154621077769   -1.39165226064127   10.39092129911720
C         9.93434397634656   -0.37141138214098    8.51417138456587
H        10.68655459385304    0.33988704934383    8.82265384331063
C        10.28122436460724    2.46272701594389    6.91328323885674
C         9.36776305481719    3.51174514512637    6.84430886137104
H         8.45630645637834    3.38990509092819    6.25665100490686
C         9.60684070855787    4.69327317472873    7.52136578122003
H         8.89590708231431    5.50455251578442    7.46560233894497
C        10.76424124628288    4.83611229119600    8.26996250445075
H        10.95258228977742    5.75658802030559    8.80087646796740
C        11.68440748217414    3.80161269144373    8.33117632088413
H        12.58969147817215    3.91823416520106    8.90745131417884
C        11.45109554583718    2.61874667038666    7.65280123326337
H        12.18246074706438    1.82292433047916    7.68210077433607
N         5.31598391163139    2.57153814526854    5.89380483428262
N         5.12969758681160    4.00668091023337    4.13095289872062
O         7.13368236201372    1.34620145358933    6.55784670432789
O         3.92274897337613    1.67305545161365    8.05512299958904
P         9.11356021966232    1.07024404434504    2.68048837574682
P         9.90888715563451    0.93200416780237    6.00760938296128
Pd        8.08720244637713    1.25098777848676    4.66289742778644
S         6.08372385652263    1.61652115845765    3.50063603801614

