97
CSD_code = YIXREE | q = 1 | S = 0 | Stoichiometry = C46H43N2O2P2PdS(1+) | MND = 4
Pd       10.48100210259032    3.59883856931548    5.07682475538697
S         9.94366923318158    5.02320051661626    6.84730635029655
P         8.71823016478136    4.33876276833796    3.91516433742080
P        11.38340833422417    2.19239094655741    3.51802632199287
O        12.09331143778169    2.77996634850398    6.11360088833676
O        14.77840456208382    2.71776084464072    5.91154941564548
N        12.22583713262144    4.11379523753809    7.98485075513575
N        10.52428821981899    4.66718449291292    9.38391462686099
C        12.73799722069869    3.44951904512265    6.97188026029852
C        14.19497892389477    3.39952909411982    6.92420153554884
C        15.15754457385240    3.95921902552821    7.72976819838208
H        14.98509742105929    4.55265034203186    8.60301096764071
C        16.39513719921379    3.59104415960888    7.16811697860480
H        17.36956700032324    3.84693005506621    7.52910136594372
C        16.09782710993020    2.83911168564522    6.06744753577087
H        16.72455035256268    2.35622022868459    5.34356384229744
C        10.97551538540541    4.50563717012187    8.14076279872366
C         9.20681998612828    5.19303190351804    9.67269850481107
H         8.50859475250319    4.84639221925350    8.90491358551669
H         8.89209413428959    4.78937998004138   10.63696772468097
C         9.19970714940572    6.71846537919523    9.71156484307325
H         9.89775334950163    7.08707248958634   10.45911493225955
H         8.20351489822061    7.07403055269465    9.95750853632858
H         9.48121491031912    7.11974622046116    8.74145293611010
C        11.37361191918845    4.30767380961940   10.50487023563459
H        11.09903339187768    4.93935225910111   11.35138775552649
H        12.40785664522805    4.51321745595029   10.22124311918386
C        11.22559788893285    2.83370996875752   10.86875700182711
H        10.19516821191693    2.60032764988284   11.12752583434963
H        11.85858284875043    2.59864390681133   11.71920840575244
H        11.52627246765495    2.21084096412071   10.02984142028803
C         7.82197266910006    2.81584852448315    3.50743085992581
C         7.76501293201456    1.90183891541621    4.56315798660891
H         8.20693133322120    2.18162675463032    5.52913199964456
C         7.13539470426966    0.68449171673322    4.39292986165764
H         7.08407254967685   -0.02254519621897    5.20752708074020
C         6.56662576432180    0.37250114731491    3.16598438578559
H         6.07494786573995   -0.57833634089423    3.02962366956390
C         6.62989810222906    1.27390410554384    2.11734829194178
H         6.18859809130882    1.02499816932872    1.16451543786086
C         7.25841326360877    2.49802567966808    2.28083757540322
H         7.32038817058259    3.19162430207132    1.45584068109553
C         7.51128892718511    5.38047103258282    4.78301148977191
C         6.28064754428025    4.91238563631365    5.22832253388458
H         5.97950701473873    3.89369517797456    5.02730079624094
C         5.43947895743616    5.76222076420539    5.92610929296204
H         4.48115786156094    5.40178518408445    6.26859197780822
C         5.82382547177498    7.06671821292840    6.18791864189856
H         5.16541008534246    7.72168805718904    6.73772517747951
C         7.05271816256617    7.53362412666584    5.74619866916367
H         7.35202413339668    8.54994762078411    5.95244302674017
C         7.89633493891072    6.69466687526980    5.04554798997996
H         8.86270193851641    7.04281376362670    4.70170600281264
C         9.04481184708643    5.29355990104606    2.41518748565327
C         8.01010605488830    5.74393972394944    1.60009887612348
H         6.98450148075247    5.51819765885895    1.85725983982943
C         8.30597841086845    6.49656395363886    0.47837559553069
H         7.50842590345269    6.84297995453088   -0.16114283021583
C         9.62191653987945    6.81761193698250    0.17957713024985
H         9.84438527262522    7.40794976249660   -0.69598720991614
C        10.64968340336491    6.40058956046450    1.01045288119419
H        11.67137974432523    6.67033240053961    0.78831029286177
C        10.36079205636608    5.64062001777438    2.12981627060177
H        11.14885299470498    5.31593749900159    2.80678950075604
C        10.56582554347908    1.59586648158825    2.00911404918422
C        10.47788280903539    2.43227289975720    0.89903862152205
H        10.94591447441685    3.40666600240723    0.92376446996858
C         9.80835295046268    2.01151785243114   -0.23406110771307
H         9.74922889566984    2.66177623805465   -1.09395215140241
C         9.21870435358499    0.75749113371253   -0.26725783773391
H         8.70029835241361    0.42868114493423   -1.15485506140095
C         9.29938589031698   -0.07504230798973    0.83681406648285
H         8.84513433872869   -1.05387341656368    0.81081928883629
C         9.96492241981334    0.34159112185182    1.97529731299283
H        10.02715395814348   -0.30918478069685    2.83613009257494
C        12.91133776263050    2.98089033130891    2.93377465960973
C        13.66036697471825    2.44352289698593    1.88985123252421
H        13.30263623294041    1.56667284025400    1.36730253046116
C        14.84795800257002    3.04470684872434    1.51279375991003
H        15.43011854736330    2.62318649680258    0.70724883950477
C        15.29093522932676    4.18425019816124    2.16560508340280
H        16.22178399305734    4.64543387555918    1.87287853599320
C        14.53504175070197    4.74042456531903    3.18536000077341
H        14.87388332352272    5.63741005088188    3.68238113654574
C        13.34647498649644    4.14456561576929    3.56648959468487
H        12.74838404245863    4.59339521774571    4.36900341915348
C        11.86998772823830    0.66554912762973    4.37500596931572
C        11.00717867671293    0.21242077494477    5.37110664879928
H        10.11308291883264    0.79075503935733    5.60305281596429
C        11.30249249476458   -0.94040832821030    6.07257378149444
H        10.63587966689524   -1.29040591924048    6.84693412977012
C        12.46472846805550   -1.64158659542823    5.78884405522140
H        12.70027896201616   -2.53898633909386    6.34037068008421
C        13.33064765089234   -1.18364810791378    4.81022193799604
H        14.24225539846654   -1.72309293027940    4.60143047070048
C        13.03884632217863   -0.03077124616616    4.10080308911228
H        13.72712376303729    0.33173132909698    3.35182885432638

