33
CSD_code = YIXSIJ | q = 0 | S = 0 | Stoichiometry = C12H12Cl2N4O2Zn | MND = 4
Zn        2.04161699190960   -0.00024856286151    4.50108343067654
Cl        1.26792121894605    1.68203612536993    3.29414968073849
N         3.36644116305183    0.98126679226729    5.86290633621991
O         6.80763055597315    3.26988569263262   10.65101027107809
N         6.05757491952002    2.50202330762544    9.79216165614943
C         3.73648474595978    2.24040598611102    5.65206344958442
C         4.49462433135414    2.95641171360723    6.55854278916030
C         4.89216125378887    2.34307321733344    7.74792377160399
C         4.49321256696332    1.02018076166909    7.95854094433962
C         3.73577447288954    0.38610272751856    6.99514944944424
C         5.68637664839261    3.07095317406236    8.71999787216540
H         6.99591621044583    2.69438566632555   11.40760658771736
H         3.39574469417106    2.68180721705690    4.72592357711492
H         4.76902373947672    3.97818485086566    6.34651240832964
H         4.77511735332125    0.51555145477960    8.86750870500602
H         3.39263919409099   -0.63105455125571    7.12274220997155
H         5.94484368228260    4.10535285174501    8.49204036093134
Cl        1.26786822061386   -1.68192267666507    5.70880696010401
N         3.36477301732246   -0.98228021660131    3.13824854433147
O         6.80893206007471   -3.26803473879417   -1.64899040328324
N         6.05812483411414   -2.50086625665939   -0.79018737827959
C         3.73438637778966   -2.24163830987779    3.34854003866693
C         4.49292399749135   -2.95724726332680    2.44207470050763
C         4.89141939914264   -2.34320752108245    1.25337571865143
C         4.49271128463515   -1.02015675442036    1.04324160733218
C         3.73476092020885   -0.38653536649758    2.00651502510161
C         5.68651674892029   -3.07040666324882    0.28152228336266
H         6.99708235703950   -2.69224944919042   -2.40535988202727
H         3.39296582946276   -2.68351995187110    4.27420619774196
H         4.76698276116344   -3.97920891627678    2.65363863062634
H         4.77530054040897   -0.51504538016738    0.13475583191474
H         3.39193352651651    0.63076998406444    1.87937801920886
H         5.94531438256157   -4.10476894423608    0.50917060581287

