66
CSD_code = YIXSON | q = 0 | S = 0 | Stoichiometry = C22H34BN7SZn | MND = 4
Zn        0.86533568162637   12.53337029956578   12.09968002897072
N         1.32650068575130   11.33491085318189   10.78022479563380
C         1.63406979616152   10.57172266789612    9.92998377862122
S         2.04012149077687    9.56121576614869    8.80423421401480
N         1.68151999703744   14.28360865368080   14.01508996565049
N         2.27585028089583   13.46761282400188   13.13174087087963
N        -0.40155056265925   13.00424289982006   14.46051668406231
N        -0.21271929752644   11.94778537218766   13.65583591292599
N        -0.40748017603027   14.83763688763758   12.78427502227811
N        -0.21960423586098   14.13212702719918   11.65895133509487
C         2.60963261120035   14.92884058951140   14.72584903370625
C         3.85181933314297   14.51967214349482   14.29151712136042
C         3.59696474471882   13.59044462911118   13.27822035306923
C         4.58516030307177   12.81713210305361   12.44951111998336
C         6.01658239030782   13.17128021959263   12.86291239727014
C         4.38710061106682   13.16938877021164   10.97069608845258
C         4.35741432560536   11.31646037036793   12.66465405811887
C        -1.12457527548492   12.63724052796672   15.52139586455686
C        -1.41743593273218   11.29565967529295   15.40465995976514
C        -0.82043053094569   10.89426283459587   14.20562795445063
C        -0.81748395660922    9.53017563942014   13.57281122064354
C         0.62918120019674    9.04153886406287   13.43625873043500
C        -1.47237225412977    9.61566226541592   12.18931073628098
C        -1.60231212528733    8.54138658079322   14.43968480253379
C        -1.14268199294310   15.92011628479664   12.51843365437971
C        -1.44473815497762   15.92076032793990   11.17387288578400
C        -0.84049325619382   14.76790524360953   10.66292772510233
C        -0.84503102262369   14.25918118276915    9.24783694904907
C        -1.49239792222727   12.86987394917053    9.21493571752211
C        -1.64284066457868   15.20568639890840    8.34627327312690
C         0.59804012620543   14.17545111267369    8.73737501607029
B         0.15875964003108   14.39269589111912   14.13598254282150
H         2.33940888437025   15.63120689661323   15.48824792480563
H         4.80010320343163   14.84978586773428   14.65944349666936
H         6.72112645256003   12.60419755318980   12.25927528158539
H         6.19002487724474   12.92669467699899   13.90823184833483
H         6.21366828700201   14.22993717814248   12.71148060521254
H         5.10173505931790   12.62420443055795   10.35913665677720
H         4.53359937708924   14.23565696228267   10.80989656483381
H         3.38501425628887   12.90154449204410   10.64590654751250
H         5.07553719360650   10.74367098549838   12.08321370071173
H         3.35738695352550   11.03339729872061   12.34684606139153
H         4.47645184300631   11.05947050346883   13.71537275005098
H        -1.38610886196152   13.33897661942125   16.28742545029624
H        -1.98169443239214   10.70086887633299   16.09127166273196
H         1.19861190226422    9.71155208235571   12.79737467452343
H         0.64676254771452    8.04917776642405   12.99262304626708
H         1.10988579550767    8.99525269934008   14.41143832480097
H        -0.91079302747134   10.28510823458594   11.54303710884943
H        -2.49297101797923    9.98392579160350   12.27245238565711
H        -1.49426206055246    8.63233842652132   11.72622384173811
H        -1.59444073987146    7.56003783685690   13.97143898564154
H        -2.63686578536182    8.85816574246569   14.54913770452146
H        -1.15517625031708    8.45114589818318   15.42684442744362
H        -1.40571045744277   16.61795977100391   13.28749956580443
H        -2.01968775796248   16.65221624151085   10.64661271266190
H        -1.52033621057261   12.49607641641384    8.19445848822878
H        -2.51028864469720   12.91425939599976    9.59723814362066
H        -0.92217066950005   12.16969666059386    9.81966004796343
H        -1.64061118649400   14.82654195055291    7.32718385332856
H        -1.20204366393147   16.19981639051967    8.34061752903928
H        -2.67533074274194   15.28015993020734    8.67949708275397
H         0.60964126078393   13.81763060099205    7.71084806061080
H         1.17824477880506   13.48655749888614    9.34586053450762
H         1.07141074401141   15.15477038192128    8.76984687456968
H        -0.13482776426919   15.16584908685713   14.98237824393959

