33
CSD_code = YIXSEF | q = 0 | S = 0 | Stoichiometry = C12H12Br2N4O2Zn | MND = 4
Zn        0.00010178229513   12.83720877343288    4.57530004597868
Br        1.77744578554829   13.58137848954627    3.21625359212300
N         0.98607082357267   11.36567915454690    5.85996252687931
O         3.02031011676427    7.22698036404451   10.19382801341157
N         2.29952904524121    8.10293790905346    9.41897199486043
C         0.33515803765674   10.83125782399738    6.89236492229358
C         0.91377549693539    9.92781157349658    7.75874264429355
C         2.24372578562507    9.54903205635886    7.55790606832174
C         2.91653652339204   10.11263554662319    6.47277712451410
C         2.25151561733980   11.00783231499019    5.65850621123598
C         2.91901898614467    8.61118929188602    8.43450560904939
H         2.41188801345581    6.94531201444049   10.89393703227542
H        -0.68751543974144   11.15266007459537    7.03266563414354
H         0.35820893677804    9.51871306417794    8.58564213761958
H         3.94545907130499    9.86113728415983    6.26816564216320
H         2.75310259285730   11.46354819216853    4.81589869315860
H         3.96007857115749    8.37239294721109    8.21626045843904
Br       -1.77719349677469   13.58150828117295    5.93433365980626
N        -0.98593268845354   11.36561049404514    3.29075129218225
O        -3.02085149099621    7.22735680164680   -1.04317003792744
N        -2.29984001157642    8.10329982249505   -0.26840018028932
C        -0.33525180857837   10.83158888545633    2.25799596407442
C        -0.91383940232946    9.92787426387098    1.39188154628361
C        -2.24364120273070    9.54875534462172    1.59308916088975
C        -2.91629243218461   10.11214663631334    2.67842786145114
C        -2.25124441776188   11.00748002477224    3.49253246940008
C        -2.91927827807772    8.61189806392104    0.71571902223105
H        -2.41226479046110    6.94515151683791   -1.74273286446991
H         0.68744682203012   11.15289928533191    2.11768922521204
H        -0.35847669766375    9.51901498696767    0.56472778625423
H        -3.94521190855659    9.86071281389371    2.88308615853519
H        -2.75271184287378   11.46313706904962    4.33524239180854
H        -3.95982609934075    8.37145883487887    0.93533819378613

