45
CSD_code = YIXSAB | q = 0 | S = 0 | Stoichiometry = C16H18N4O6Zn | MND = 4
Zn       -2.50546870488722    1.60052651927743    4.98866487171349
N        -0.64806834085309    1.68330497136199    6.00910660319448
O        -1.63774690955014    2.68742420041295    3.44942798695186
C         0.14169832045681    0.61874941028139    6.09804805473060
C         1.38681568331453    0.66020287667902    6.69508436515476
C         1.84313593001148    1.86803811910455    7.22886082010726
C         1.00169929143369    2.97690714638517    7.13007055868880
C        -0.22849813791759    2.83583392396073    6.51429845876496
C         3.14163893532405    1.98910730048218    7.86646761805522
N         3.91220093751649    0.98466323767533    7.94893217703671
O         5.12195048906580    1.20728856218816    8.57168682173487
O        -1.66577457685446    0.50716423895517    3.47474695656495
C        -1.35432665561632    1.58794263299910    2.92812505776612
C        -0.63088997407399    1.56008327653015    1.59766024819668
H        -0.05080927476361    2.46897348108132    1.47174822210043
H        -1.37347770451674    1.50170764607272    0.80456195941052
H         0.00634125300859    0.68280791911515    1.54254387156815
H         5.57751941810078    0.35293105224974    8.54713501048829
H        -0.25098540189910   -0.29051545783514    5.66623961154565
H         2.00873635986125   -0.21764109593374    6.75487724071648
H         1.30452802284411    3.93427385362356    7.52611437404302
H        -0.91398039832087    3.66530856952681    6.41975145450063
H         3.42059650012066    2.96595831526138    8.26327588523471
N        -4.36312199822284    1.68347748482075    3.96855775570072
O        -3.37367444195442    2.68717246471470    6.52789868952714
C        -5.15323863361537    0.61913538580683    3.88019703623982
C        -6.39862715700151    0.66083497608078    3.28374989045322
C        -6.85489428184058    1.86872305771794    2.75005199511638
C        -6.01322461027334    2.97743991167055    2.84850308061904
C        -4.78267754878629    2.83607183536966    3.46350613077436
C        -8.15336777575777    1.98985528746312    2.11239352367039
N        -8.92132223768860    0.98388921988449    2.02421737387664
O       -10.13118202267260    1.20661373087390    1.40169328507898
O        -3.34546473186938    0.50691161724869    6.50224772074504
C        -3.65736901876035    1.58758608559600    7.04881830542952
C        -4.38190258274048    1.55944962966799    8.37868062680804
H        -4.96318867126225    2.46770186781495    8.50365560894895
H        -3.63994004046046    1.50240429467988    9.17245333029737
H        -5.01811808132961    0.68142842360517    8.43364557883126
H       -10.58423870647720    0.35078139654745    1.42081928630601
H        -4.76063110188978   -0.29015323321464    4.31201944726209
H        -7.02081808660709   -0.21684427336334    3.22438851955181
H        -6.31600225237539    3.93484142703143    2.45250538514764
H        -4.09692742196035    3.66537385343096    3.55760048866105
H        -8.43440365837736    2.96796485720451    1.72016871266687

