51
CSD_code = YIXVUX | q = 1 | S = 0 | Stoichiometry = C18H24ClN2O2RuS3(1+) | MND = 6
Ru        3.33212613258436    3.38892030564117   13.94693000597490
Cl        1.35775224451285    3.57037719376197   12.70267073394458
S         3.80673355900779    1.33723868612286   12.89647191683431
S         2.10505483807171    2.16816562259711   15.52984578979068
S         5.25280554384610    3.06089852730543   15.27833978727536
N         2.89796571432544    5.20341692815235   14.69837119147726
N         4.14728642068115    4.55625171243033   12.52136533693518
O         1.82788008574140    9.01395875132890   15.86430451344952
O         5.15284346314438    7.28994277525205    9.59591640629609
C         2.21731901713863    5.44922256461917   15.81845172816054
H         1.93752976475905    4.59006010142814   16.41543464613030
C         1.85335928507397    6.70897066704028   16.22300994074240
H         1.29685932526526    6.86689444635878   17.13110395292513
C         2.20126063801385    7.81285125506391   15.42718677343659
C         2.90384413776608    7.55430953780679   14.25054492636917
H         3.18860564221501    8.35761038045749   13.59432939301859
C         3.22644864939170    6.24452553883497   13.91157282770033
C         3.91300598912455    5.87919814371041   12.66972114232372
C         4.26390834484715    6.78881455986673   11.68708624645215
H         4.08011561735465    7.84337849604684   11.79693801584947
C         4.84859928141613    6.35246176552910   10.49289197416835
C         5.05036969450259    4.97604988208430   10.34643881382465
H         5.46993580290965    4.55320211229958    9.44955774495540
C         4.68173527696527    4.13999941018261   11.37932398536388
H         4.81032735087138    3.07071025606394   11.26564522858145
C         2.12164518772429   10.16312116729186   15.09238643495822
H         3.20036921741780   10.30141549954595   14.98128461674816
H         1.70568311296566   11.00056168462394   15.64851995638501
H         1.64901165778781   10.11087433314941   14.10833585265956
C         5.70630081360698    6.90537433336425    8.35076086114833
H         6.67244845456137    6.41132331815490    8.48195478812964
H         5.84562517307302    7.83071044901449    7.79590680334156
H         5.02582616856924    6.25085302502299    7.80066276949719
C         2.95704465217007    0.04553100378708   13.89918983367106
H         2.62810668869082   -0.71845368971273   13.19415653584675
H         3.68936296737490   -0.39125859274816   14.57706313389473
C         1.76220069952497    0.62045322538233   14.62569315897509
H         1.33843662402599   -0.09433012664225   15.33158404887429
H         0.99543363164089    0.93521522720366   13.91294286295199
C         3.34126353674362    1.62920601603362   16.79861847742361
H         2.81243470891882    1.59915883140027   17.75158619772085
H         3.66106212625221    0.61936853603123   16.54907441145459
C         4.50484126568791    2.59420309082443   16.89174586074921
H         5.30728761766024    2.18728074776334   17.50797742077782
H         4.18532855957838    3.54901559744895   17.31090088897959
C         5.93348458763768    1.41546778707592   14.76882386475292
H         7.01649742840476    1.50218281137888   14.85838609437694
H         5.58144660784063    0.68130877274512   15.49034020774135
C         5.56435074033623    1.04060141328372   13.35059341199947
H         5.77399302410755   -0.01154807830940   13.15636956848101
H         6.12534292820410    1.64933399686692   12.64078891651949

