42
CSD_code = YIXWUY | q = 1 | S = 0 | Stoichiometry = C16H21ClN3Pd(1+) | MND = 4
Pd        6.13411396884431    2.08221165342876    1.02587736465019
Cl        4.20010794846703    1.61980230963932    0.00836095749668
N         7.94826874987001    2.40251527038346    1.98796096842810
N         7.14006349525759    2.41569155505284   -0.64863658177693
N         5.47444888701693    1.58422369631847    2.82848371432446
C         5.30975025527430    4.97210242278680    1.68821429370651
C         6.61203671186887    5.73129984299247    1.92940660250241
C         7.86734059647085    4.90507411474389    1.63283607191767
C         8.09611919357605    3.73234662811778    2.60443952310145
C         8.97355422026526    2.15062003011631    0.96011486309116
C         8.46888064719551    2.42138587712813   -0.44461278873738
C         9.35535411776771    2.63062259412668   -1.49142987940912
C         8.86146118400719    2.83555674775095   -2.77091644995555
C         7.48910375691793    2.83226006845878   -2.96418013029925
C         6.66164312884104    2.62042733168324   -1.87429746330237
C         7.88118927474412    1.36851485864329    3.03547784144638
C         6.50150144102387    1.33629994763037    3.65876120634675
C         6.29094624245297    1.02340776815416    4.99217649782078
C         4.99025660727185    0.95171285008735    5.47197636180344
C         3.94152092103769    1.20630127890533    4.60291558444889
C         4.22663576980797    1.52661341762926    3.28518496668676
H         4.46826157616527    5.65633553349214    1.76166651270815
H         5.15611926988225    4.19282177328460    2.44486044193656
H         5.28941460466078    4.53278349764893    0.67617279567414
H         6.63274138562052    6.60784048073604    1.28002319574010
H         6.64399719706256    6.08910921723321    2.96035181083671
H         7.79622087068994    4.54040496178472    0.60499550986803
H         8.72955500549041    5.57178922149753    1.67709813815027
H         7.37575056617864    3.80102525248909    3.42528926060562
H         9.10179559791876    3.80210137976063    3.04347062319554
H         9.87272064716538    2.75077865031263    1.14937737804160
H         9.27376482116017    1.09550120449357    0.99544758678167
H        10.41755143700479    2.62899495060756   -1.30405704516933
H         9.53682063275675    2.99544695319712   -3.59634235261640
H         7.06154133264571    2.98858568351239   -3.94053729235778
H         5.58271435198267    2.60412182483187   -1.97428779411960
H         8.65011148163692    1.52387779417711    3.80533340571394
H         8.04990825957128    0.38337863076530    2.57645038491735
H         7.13008767542134    0.83072219460831    5.64171491207082
H         4.80468107342664    0.70135435669598    6.50437240372143
H         2.91755739440178    1.15775329873310    4.93431029563141
H         3.44358770117302    1.73478287636386    2.56547630437507

