45
CSD_code = YIXXOT | q = 1 | S = 0 | Stoichiometry = C17H23ClN3Pd(1+) | MND = 4
Pd        7.36080195005085    1.60710161779888   21.89764454655107
Cl        9.01567833897947    0.59021268391624   23.00307830654852
N         6.46662337078341    2.31293697482720   23.51629365311889
N         5.78726596655719    2.47813994823566   20.85064395559808
N         7.92988855914193    0.95279732152596   20.11847547097405
C         6.96822099289375    2.45261515018392   24.74131696013774
C         6.25491147670318    3.05270577069543   25.76583185073712
C         4.98101854855950    3.53105285864636   25.50328934143240
C         4.46704720478348    3.39437213433108   24.22219728405193
C         5.23494708349864    2.77910131193653   23.24416401381505
C         4.70243367097213    2.55680039183133   21.84248259358342
C         5.58245557545092    1.46645601137948   19.79850689564472
C         6.92014728870829    1.03488377118114   19.23398780729488
C         7.10292982893266    0.70773760783369   17.90034682794933
C         8.35345579131968    0.27971434473718   17.47489481561160
C         9.38455555179370    0.20442528688629   18.39706614272515
C         9.13268547599753    0.55590801593015   19.71404703248395
C         6.07806621831348    3.78613743917467   20.23926011179123
C         6.73541848988642    4.80876506925274   21.18257193840248
C         8.24903537794645    4.58383499881734   21.28586147950502
C         6.45589622984874    6.23337515249048   20.67619800091278
C         5.03241342215035    6.70546203274673   20.95066239888554
H         7.96685812998385    2.06124914495423   24.89660354897543
H         6.69308908001202    3.13972901462165   26.74616177551995
H         4.39659040817046    4.00335394875841   26.27693436155679
H         3.48052857935021    3.75874470040279   23.98219484514146
H         3.98688032787509    3.34856232474161   21.58498174740817
H         4.15409679734838    1.60559454249390   21.85342248078113
H         5.11077589756566    0.57766663419375   20.24204378211725
H         4.92666190163558    1.84074964549346   19.00015965905648
H         6.27965927889760    0.78014727396830   17.20730293613049
H         8.51440387232918    0.01322440476871   16.44233415459999
H        10.36944984290296   -0.12248408629367   18.10745596474203
H         9.90380950432331    0.50946444219459   20.47425623044776
H         6.75179401898150    3.62179467005109   19.39185179695124
H         5.14041228221757    4.20102754218743   19.84591188070817
H         6.29476606738983    4.72197427791271   22.18249058224516
H         8.50732263771601    3.56702687502114   21.65365357468773
H         8.71723389675294    4.73519041243619   20.31467378702599
H         8.68001533915391    5.30014440436286   21.98075456383369
H         7.14370186713933    6.91541853445884   21.17644182126315
H         6.66424859964931    6.28582533485479   19.60610411847214
H         4.91644728474663    7.73452454328555   20.62331619051110
H         4.29296460236965    6.10764510860654   20.42220007752566
H         4.81449337022055    6.66339041216797   22.01582869254111

