46
CSD_code = YIXYUZ | q = 0 | S = 0 | Stoichiometry = C21H21FeO2P | MND = 7
Fe        1.06137565415640    6.28380280936213    4.28537583628511
P         1.41686322243138    4.14957194816330    4.23450884791455
O         1.76047904329823    6.52360778045992    7.08316710016793
O         3.65130536637570    7.22062979510587    3.31684811592218
C         1.45848204584087    6.39119809068973    5.97945609351652
C         2.62104470122996    6.86233899866868    3.67834483347014
C        -0.02669121002493    8.07650577552845    4.10723776841493
C        -0.92101821747225    6.98679536243114    4.34853880691213
C        -0.79000685653453    6.11352830415979    3.25055228733277
C         0.18609132005735    6.67227403721200    2.37978746995087
C         0.16951958644759    8.17813211542234    2.60496087520900
C        -0.97342852478525    8.89144681879849    1.87161972369996
C         3.06508536308462    3.58001075855565    4.82462657451533
C         1.36644959268308    3.45456571599145    2.54828915336770
C         0.25132754792530    2.78130542728258    2.06151291140653
C         0.20822488869248    2.37073046932802    0.74106601903257
C         1.26880158525346    2.64179588576239   -0.10715280994571
C         2.37179202276817    3.33561593873829    0.36519019668545
C         2.41644914766963    3.74860354761371    1.68324269698715
C         0.36734411283779    2.97055072540991    5.16005152874480
C         0.50483515135405    1.59228685374880    5.01838561484246
C        -0.28617509495757    0.73884790727617    5.76402827109896
C        -1.21559914781394    1.25110608514202    6.65649430153977
C        -1.35555329583088    2.62091914095987    6.80161518171458
C        -0.56661808880755    3.47747147950233    6.05383160978615
H        -0.03210261961864    8.96634267838852    4.72543748476489
H        -1.62400922319984    6.89429319778672    5.16259907302474
H        -1.34706130762698    5.20044369989143    3.08989363083565
H         0.36414770671030    6.26022505926916    1.39337989985526
H         1.11186747520336    8.66169913210457    2.33750859463893
H        -0.83181142978823    8.82246847871527    0.79485552238930
H        -1.92824594587142    8.43631892523512    2.12737288729498
H        -1.00221587309959    9.94303817190504    2.14969921473083
H         3.22845825066408    2.52674481249755    4.59571013459709
H         3.84283397110181    4.18868762240474    4.36521258978372
H         3.10047126670518    3.73296650467958    5.90423173970543
H        -0.58150381443439    2.57329534851484    2.72003224353958
H        -0.65852372803328    1.84215845092851    0.37113101670936
H         1.23197846668236    2.32153460609211   -1.13794317157846
H         3.19336894741205    3.56138078489452   -0.29897090877066
H         3.26264847936975    4.31395963740043    2.04794644992483
H         1.22241793676716    1.19148635844270    4.31514754913352
H        -0.17904348212055   -0.33029659738052    5.65072118481569
H        -1.83054856943980    0.57983598985828    7.23767522001966
H        -2.07892472968048    3.02060178617212    7.49722291369015
H        -0.65878169358397    4.55137358088704    6.15475772232232

