71
CSD_code = YIYCER | q = 0 | S = 0 | Stoichiometry = C28H28B2FeN6O6 | MND = 6
Fe        2.83164563968931    5.34571855000218   11.33516865065679
O         5.27804739164613    6.25879892391343   10.22721733412695
O         2.04137726291390    5.54857929756328   14.05047444278759
O         3.64901580641350    5.42360929484003    8.61984555201548
O         0.60687333671201    6.70616548640977   12.45301741369570
O         4.87235400531161    3.86309024488126   10.03980980468298
O         0.53729701933308    4.27667629551997   12.61523556705299
N         4.49197875603047    6.23111961264206   11.32314029440901
N         3.04467171676644    5.72138170808517   13.16609450150948
N         2.69911227226668    5.77710361555718    9.50994584620958
N         1.37728856309259    6.53748607041069   11.35856360492502
N         3.76159834686366    3.79913025542086   10.80209821702994
N         1.61448439204698    4.00637325385943   11.84977774422778
C         5.00044466365848    6.60845815064713   12.46378569648725
C         4.09564666793389    6.39711098472839   13.54151876610599
C         6.36708652866556    7.19007045061208   12.61647533225767
H         6.86881638042409    6.76110259345621   13.48052899958526
H         6.30717384797523    8.26965337553044   12.75276146052783
H         6.93976188500908    6.98744151145392   11.71454170265126
C         4.31370537653822    6.88910105522864   14.93390472631041
H         3.35803108834676    6.91071392628750   15.45316748727811
H         4.75470616198102    7.88248037070160   14.92303542703046
H         4.98315005199235    6.21873962906097   15.47277038683685
C         1.80192805581542    6.65081815562729    9.14294357428342
C         0.95071480721093    7.01694155429429   10.22227611958790
C         1.69922730696341    7.19900595512125    7.75803361250075
H         2.67107079420351    7.11634136022302    7.27559267253295
H         1.38255656293222    8.23809584723225    7.78006641416577
H         0.97893086728863    6.62565010880907    7.17432768467772
C        -0.28825938426037    7.83846694268586   10.08459486180051
H        -0.96223630953757    7.59594642445146   10.90375817937450
H        -0.77435623833689    7.64216894564883    9.13304653778879
H        -0.04915473025717    8.90034168686834   10.14377252602270
C         3.17937311438991    2.64208722699423   10.95788890886881
C         1.95373889367410    2.75937536942307   11.67125848634983
C         3.73517072706617    1.35549081388060   10.44385464107157
H         4.46920268911250    1.57310647885126    9.67104915998792
H         2.94180978887900    0.73210981737303   10.03935174333692
H         4.23060826867706    0.80852823303344   11.24593798565565
C         1.15041488574647    1.59960842196889   12.15975834482589
H         0.57444294300098    1.16607928068942   11.34241393942596
H         0.45686348529624    1.94705049207932   12.92204913348581
H         1.80085956126987    0.83079609125691   12.56924787448719
C         6.13301938941338    5.02391328622369    8.17449064082728
C         7.46702513306513    4.95154853135537    8.56945081966871
H         7.70042234197901    4.98792554396309    9.62280122510762
C         8.48716045199294    4.83275774572206    7.64681162216417
H         9.51780569172923    4.77852591789344    7.96850723244516
C         8.19254844183278    4.78054532872746    6.28498337246347
C         6.86195509037306    4.84762828400182    5.87394920672501
H         6.63052606213027    4.80500473874889    4.81881510542494
C         5.85491366403192    4.96688957908444    6.81112937955515
H         4.82514466076695    5.01681289196074    6.49168854884426
C         9.23142832259961    4.65986721189550    5.33077161948059
C        10.11041135401877    4.56354467663498    4.51842809707118
H        10.88198096797761    4.47322477616212    3.81339772237172
C        -0.44627859662758    5.63482606256889   14.52315598536706
C        -0.57997907428718    4.61432614189585   15.46226910723538
H         0.09400899030128    3.77235738338712   15.41454246862116
C        -1.54700144956287    4.66174311481167   16.44636228174204
H        -1.63890966322927    3.86215985164918   17.16807358915201
C        -2.41703504585771    5.74916034825947   16.51670293148322
C        -2.29321963368659    6.78040876749102   15.58672330995498
H        -2.96471188245677    7.62593439081910   15.64033359754402
C        -1.31983271144149    6.71575020069544   14.60935471768981
H        -1.22305918667903    7.51670395843275   13.89243629790056
C        -3.41291666759618    5.80536518316754   17.52139306210950
C        -4.25761127676080    5.85043283936254   18.37356584411554
H        -4.99441958989888    5.89294763949862   19.11909783623154
B         4.97111163352396    5.14734914994093    9.26429289442050
B         0.68643933160567    5.55023259232255   13.39947012565047

