53
CSD_code = YIYDIU | q = 0 | S = 0 | Stoichiometry = C23H26ClN2Rh | MND = 6
Rh        3.78402057875053    8.41398338399188    3.29557800781153
C         2.44969689709347    6.85768246566962    2.78695387006215
H         2.78366805768468    6.30644994567098    1.90901641561301
C         1.81963856336425    8.08434112384063    2.56109326050714
H         1.74854519620586    8.41562470320430    1.52618663016010
C         0.72163693714333    8.62254479420142    3.45643601587645
H         0.15024056895587    7.78007002957682    3.85247068726127
H         0.03736808641246    9.21906402012319    2.84960014737119
C         1.25097290596905    9.49543229019830    4.61195157927832
H         1.19584367825554   10.54529612211879    4.32223733278046
H         0.61378531301072    9.37126845572014    5.49557238944670
C         2.68016169213882    9.18009770869803    4.98634954419284
H         3.24240431356806   10.02933773705750    5.37450935300268
C         3.12204447846156    7.91033525310937    5.29502716527553
H         4.03941579015773    7.81036615114125    5.87627017760392
C         2.20711848183262    6.70648667584698    5.32328090451609
H         1.20215082234801    7.03216602952772    5.59745944578395
H         2.54620574271762    6.01708883037702    6.09976576486525
C         2.17520591803914    5.96203485733741    3.97486362173067
H         2.93174849825029    5.17269462683772    3.98673084543548
H         1.20373005407200    5.47107036165434    3.84181275383519
C         4.83890980638181    8.19550402713346    1.61403733576042
C         5.53042661955296    7.07770974458943    1.16784075184748
C         5.60907373871666    5.72007038803390    1.77156881871753
H         5.12844529572784    5.75259591940566    2.74767197310570
H         6.64941892080883    5.42408005366098    1.90963351897207
H         5.11401900107372    4.96988352079774    1.15191612967992
C         7.06896780230433    6.67937658889703   -0.72988292308043
H         7.18735455702971    5.63971249514492   -0.47306375200810
C         7.68832688772566    7.26213020357258   -1.79810250124747
H         8.33283659305524    6.66904275290446   -2.42557719546337
C         7.48824261545967    8.62172870967193   -2.08023296773918
H         7.97892876972463    9.07284683776506   -2.92670569920127
C         6.66511305981360    9.37584118104257   -1.27357555623642
H         6.49620523276050   10.42167434136906   -1.47086437034381
C         6.04775122797911    8.76039343773680   -0.18963915415504
C         4.82911842602188   10.59047017492724    0.96756301297060
H         5.37622449977701   11.21804697189368    0.25938142315669
H         5.12632560370532   10.85538947060108    1.98909809911595
C         3.34468662210140   10.78372774948959    0.80235904168307
C         2.58888218790355   11.33259741420013    1.82942913352012
H         3.07330643602243   11.60967449705606    2.75531420887699
C         1.23147024669409   11.54623780779830    1.65355893891137
H         0.64802990449565   11.99790918506765    2.44274123212552
C         0.61679662994410   11.18556646639036    0.46710099737483
H        -0.44316762071929   11.34624745094360    0.33416141469788
C         1.36301883978410   10.61689650096238   -0.55171456539587
H         0.88565328816985   10.32967939673699   -1.47739352763355
C         2.72285374148972   10.42532056818249   -0.38802250269621
H         3.30672815972140    9.99115057009014   -1.18861907939149
Cl        5.68247670437298    9.43896388327536    4.05371043964707
N         5.20566288141607    9.21248428972110    0.75692752465689
N         6.25481074646099    7.42071183479662    0.06331388763446

