101
CSD_code = YIYGIX | q = 0 | S = 0 | Stoichiometry = C56H40Cl2P2Pd | MND = 4
Pd        8.43408753243702    8.81075741515032   11.00445661850529
Cl        6.92851262573785   10.50443004727444   10.91502275092682
Cl       10.11184311856197   10.33218130918585   11.02326213034061
P         6.71807596182444    7.36192833761093   11.02666495693922
P         9.94198724834797    7.14857037492106   11.06082944999964
C         6.82939841647001    5.75943185285821   11.86782656866269
C         7.66745500267706    4.76079656520197   11.53046071971441
C         8.64073312617615    4.72183019943687   10.45958908265298
C         9.61892056308178    5.60268179199425   10.17397133164362
C         7.44697696518404    3.48129620816582   12.33123357683813
H         8.13533344309326    2.68136868126964   12.06313005639793
C         7.54858451168861    3.86118802973326   13.78545412015817
C         8.33742606445357    3.24958904012868   14.73704179665599
H         8.98425171313823    2.42754279978151   14.46708604352339
C         8.27670619938598    3.70118645600215   16.04741175785820
H         8.87974609801603    3.22292002642139   16.80471498936163
C         7.45049862545894    4.75689123004434   16.39059924114439
H         7.41641483887501    5.10183483337547   17.41314988934174
C         6.65461707877488    5.36983303319791   15.43372161353903
H         6.00025022733470    6.18644468370540   15.70097609503381
C         6.69960801923533    4.90617245120649   14.13560491701832
C         5.86399962545166    5.39534055782966   12.98277948925923
H         5.18972239568878    6.20330664126679   13.26008501992072
C         5.13536950270807    4.17674490889141   12.46769054863703
C         3.77171704766298    4.04944379111223   12.30739847357160
H         3.11207938469522    4.86372568278716   12.57012367284703
C         3.26527085077253    2.86086710662862   11.79782542025260
H         2.19981514557155    2.74858523044454   11.66460122135128
C         4.11441773773598    1.82210924588736   11.45970982469379
H         3.70826600079920    0.90215956022659   11.06655029141153
C         5.48810548108766    1.95274030943958   11.61746530326766
H         6.14885892410762    1.13954151138054   11.35267996335658
C         5.99192932914323    3.13464132380877   12.11791713272767
C         8.60539493151841    3.97302076819311    8.15125428687110
C         7.71708155465511    3.56543127044905    7.17864478395557
H         6.94894660345123    2.84081864109242    7.40620250884058
C         7.83373552006466    4.09526123448370    5.90170329637117
H         7.15282529950260    3.77451565971118    5.12761128736949
C         8.81515648758308    5.02687882862415    5.61274471159599
H         8.89222102129317    5.43390732512048    4.61571147859202
C         9.70918203592608    5.43644820688005    6.59152960915415
H        10.48203981235096    6.15651467822667    6.36645998406751
C         9.60450393130233    4.89489433350964    7.85550498583732
C        10.51318203653183    5.17025244181134    9.02434247640642
H        11.30183068539916    5.88306001575399    8.79088713761954
C        11.05022535731515    3.82327821702055    9.44505597135793
C        12.37936893680465    3.47823073872435    9.57035689241988
H        13.15421107955285    4.19869900505393    9.35181436234401
C        12.70122572304030    2.19276287517139    9.98584030662296
H        13.73783004244095    1.90933381031135   10.08941757582093
C        11.70534234583225    1.27430327442461   10.26733537360322
H        11.96858369520076    0.27705033571744   10.58695425893795
C        10.36687248061432    1.62432790961029   10.14597511871359
H         9.59100964939305    0.90489609940592   10.36630723580013
C        10.04665368175507    2.90202957092416    9.73792367110019
C         8.66082378075042    3.47993746143065    9.57405795499287
H         7.85994911550490    2.77758756099257    9.79949738161168
C        10.08728036151778    6.63925289307442   12.79605409752837
C        10.70085952783270    5.45387832829678   13.18925450548906
H        11.05401318617870    4.75662262715048   12.44047450168887
C        10.85651200374832    5.17925363183842   14.53511746295868
H        11.34782559621066    4.26844693550868   14.84410504926316
C        10.39105268081393    6.07195116837661   15.48733293902630
H        10.52283446044935    5.85465487548541   16.53650022105694
C         9.75596821410559    7.24016880236763   15.09910825377726
H         9.38839484539441    7.92877834530888   15.84511315382107
C         9.60691007616323    7.52844152345303   13.75490552656548
H         9.13085186389246    8.46562426749220   13.43204026090837
C        11.63072263491744    7.55773960699118   10.53269652970964
C        12.77612834787736    7.24177254492955   11.24857525406945
H        12.70299735799950    6.72518827120429   12.19496294039472
C        14.01574120213651    7.60721800073109   10.74899101670337
H        14.90843103469218    7.36671415503762   11.30801136719047
C        14.11356460649568    8.28490336177221    9.54621204808416
H        15.08313614671283    8.57273614703415    9.16724146871695
C        12.96847728122541    8.60883349903361    8.83308871229804
H        13.04527758094601    9.15156789538440    7.90267457535681
C        11.72995363979675    8.25055235604725    9.32582523711802
H        10.81915996249777    8.51935880167151    8.79723593961631
C         6.37947221722802    6.90635899725291    9.30366360203967
C         6.95808746865170    7.69835518176944    8.31448912712275
H         7.62011250634453    8.52726833291631    8.60287461883888
C         6.67744224912703    7.45245601571419    6.98297804812954
H         7.11814821352645    8.06879976508708    6.21396015794551
C         5.82019727001594    6.42063501986797    6.63753831294943
H         5.58761407039901    6.23998891773350    5.59891550077590
C         5.26209791483043    5.61695051872759    7.61890394617935
H         4.60081132870454    4.80846097340422    7.34360630636097
C         5.54274009799702    5.85098467435424    8.95206223084077
H         5.11543723281751    5.22145332588519    9.72185881581187
C         5.16224775848840    8.02779624918715   11.68446593893348
C         5.27139660928047    8.69557646009282   12.90444963763119
H         6.25276295187917    8.79699535366335   13.36233192381475
C         4.15102678530275    9.23935107055854   13.49857133210536
H         4.23577825288027    9.76284505098050   14.43929921704130
C         2.91725984218969    9.12703009823201   12.87359253123198
H         2.04067505783085    9.56037251105304   13.33207652051169
C         2.81009135250328    8.47599861083629   11.65718674702509
H         1.85047942110137    8.40278374285905   11.16636174635754
C         3.93018122826706    7.92399320985949   11.05643223170960
H         3.84627294582475    7.42896638275698   10.09949372774510

