27
CSD_code = YIYJOG | q = 0 | S = 0 | Stoichiometry = C12H9Cl2N3Pd | MND = 4
Pd        2.93932751525051   -1.31169017369861    7.75362221972042
Cl        1.74788888265035    0.53335903104124    7.93224627377873
Cl        2.19736275498546   -1.95025209984778    9.73621783190919
N         4.07561277750167   -2.97988066528711    7.47939388903843
N         5.04294415336851   -1.54600599908455    4.26099049421518
H         5.67566758913756   -2.11537623521221    3.72565297482344
N         3.71849907678017   -0.87534406853387    5.91674218815845
C         4.20840192481774   -4.00694217046622    8.31692887781213
H         3.64761660539597   -3.93087155807303    9.24262560811754
C         5.00592389262926   -5.09992866168336    8.03003568396652
H         5.08350252923625   -5.90807742920542    8.73855452437143
C         5.69900488576108   -5.13776578527468    6.82420230753520
H         6.32701586733981   -5.97889224161983    6.57539211572791
C         5.56826654071067   -4.07713962466958    5.94928464289601
H         6.09102413601224   -4.07318008665017    5.00550341100047
C         4.74709630227598   -3.00520545216500    6.30255775709407
C         4.52259022017675   -1.83948900631419    5.48849898040188
C         4.53987952168578   -0.32444704934422    3.88767270227521
C         4.72231663236468    0.45550107709013    2.75562553790318
H         5.36296506122658    0.13633559837059    1.94828343123875
C         4.04600843212695    1.65772302394348    2.71205047026705
H         4.16074677340377    2.29438844433333    1.84811972273598
C         3.21460331659179    2.07489599308321    3.75701696398892
H         2.71004179555906    3.02466007204899    3.67171681563274
C         3.02498888137827    1.30908877353565    4.88625495966597
H         2.38834937060375    1.61046157253642    5.70412928035525
C         3.70005456102760    0.09187472114552    4.94728033537165

