26
CSD_code = YIYJUM | q = 0 | S = 0 | Stoichiometry = C12H8Cl2N2OPd | MND = 4
C         3.25080666787725   14.27032236123370   11.77902276836492
H         2.24729484204877   14.21072238263849   12.16665992569244
C         4.36359712218597   14.19726967917058   12.59749010636361
H         4.22203850240611   14.07633428379793   13.66042913220023
C         2.24676179636981   15.05685226525726    4.32788233458691
H         2.02274083856003   15.16218571624305    3.27890762072002
C         5.66352176254326   14.27458544244548   12.09134408816823
H         6.49384431553038   14.21133715888186   12.77726030236735
C         5.91368845615267   14.42870934623685   10.74343786604605
H         6.90684967110720   14.49108702134295   10.32551068849591
C         1.22557103003363   14.93970436009618    5.26704199002848
H         0.19143657349472   14.95322448996385    4.96004387554574
C         1.56023614712990   14.80570709785459    6.59983762963719
H         0.81311631188519   14.71087013838267    7.37149874673120
Pd        5.77691153358157   14.85610697033325    6.84625293629394
Cl        7.73275270020615   14.78504402949407    7.85937341105737
Cl        6.79786060078351   15.08508198747255    4.90941724163496
O         2.61789246045972   14.52413747742708    9.38769535823961
N         3.89949575009854   14.90815821323731    6.03203336570021
C         2.91057990378383   14.79299873339781    6.95048701994365
N         4.68662250790549   14.65123051012966    8.54850503150481
C         3.39468097196744   14.65713393712758    8.29484813948962
C         3.49485988384284   14.42444911616850   10.42682139908681
C         4.80390312603740   14.50335912976522    9.90951542100487
C         3.56465460303272   15.03701170335343    4.74973250427299
H         4.39338192096833   15.12567644854602    4.05555109682326

