26
CSD_code = YIYJIA | q = 0 | S = 0 | Stoichiometry = C12H8Cl2N2PdS | MND = 4
C         5.29719046681366    5.55931122719282    4.82934605052535
H         4.75942572169753    6.40743440090729    4.42925018517062
C         6.46424432657150    5.69621852097498    5.54772723794392
H         6.86356084231601    6.68300939476755    5.72209551684581
C         3.45623806938648    2.64771184489906    3.89360135189925
C         6.66061913380323    3.30810874276269    5.85079527035969
H         7.17582266380314    2.44337283450179    6.23798642721882
C         4.79266478347022    4.27606579185622    4.61077417442713
C         5.48782238705517    3.16183351178326    5.12842084607619
C         7.14085731129649    4.58622271148397    6.05450652191383
H         8.05319106526553    4.72543231627823    6.61389808690126
C         2.31771688295775    2.08958853336484    3.21838417064075
C         2.05907170480272    0.71931844695074    3.14539283015591
H         2.73856637749661    0.02579393630958    3.61627688687076
Cl        2.82542621438461    6.98975885852936    3.19447314391676
Cl        0.41381914323189    5.76166458851038    1.78472333322106
N         1.50235534938216    3.00420737225204    2.64673749825013
N         3.65560109131818    3.94488559232269    3.92385641043985
Pd        2.12231784635702    4.91993425230598    2.90206725363822
S         4.65847673020474    1.68977453709028    4.71768772754089
C         0.42018101609631    2.57766722650428    1.99616061846221
H        -0.20057191552529    3.35084292189233    1.55710960496324
C         0.10312276261945    1.23631750237184    1.88414220725162
H        -0.78290586645856    0.93898253302240    1.34738235907738
C         0.93692752168590    0.28717385624813    2.46855532740021
H         0.71255836987053   -0.76543145512799    2.39494895891885

