47
CSD_code = YIYJAU | q = 0 | S = 0 | Stoichiometry = C8H14CdN20O4 | MND = 6
Cd       -1.09806505073097   11.66020200472609    7.93399010132920
O        -1.82794520941673    9.67518955604956    7.10968773024406
N        -2.90779694911923   13.73897197614254    7.01918949334307
N         0.42116587305683   10.98807354710915    6.25768431297107
H         0.26106558923746   11.57942717096490    5.43676892252877
H         1.36148386343918   11.12729826175086    6.62558562048879
N        -1.44628591701222   14.63215209349742    5.63000345966156
N        -1.23165154343191   13.35530966514731    5.71990145155385
C        -2.48362107104038   14.87497288279251    6.43999819159736
N        -4.68145256188958   15.32116847916265    8.51486675647938
O        -3.52290403204828   18.20377161993568    6.98939580984383
N         0.15924381558984    9.63117403959537    5.98962057073055
H         0.94660606053742    9.04017279208312    5.74219445662502
C        -3.06607624363843   16.13836869430900    6.78181910364820
N        -2.10237548685562   12.81052722667083    6.54143629429164
C        -4.12299499535215   16.30973577763755    7.75746473833759
C        -0.92554132960079    9.03645002481050    6.57732524309207
N        -0.98963694233245    7.69355930337315    6.43460295987884
H        -1.74834711241432    7.21648568000587    6.89202786731733
H        -0.20228337050495    7.14864326790568    6.13106397000453
N        -2.74159140979269   17.32341846528334    6.35176792349665
N        -4.37155863952089   17.58851678591523    7.85261709860726
H        -4.58983423460544   14.41495094265942    8.06443505615476
H        -5.59677936625701   15.54167240144367    8.87882789327870
O        -0.36928813280022   13.64532799899778    8.75908191489130
N         0.71198004258203    9.58128284563902    8.84821503682230
N        -2.61813753168067   12.33137821663643    9.60981678781621
H        -2.45803146406027   11.74002895110941   10.43073538923768
H        -3.55823789161249   12.19169035062983    9.24153731804829
N        -0.74879378692981    8.68835060947741   10.23832864759461
N        -0.96358371045817    9.96515184050106   10.14820874221175
C         0.28815552650914    8.44539243851104    9.42787630401137
N         2.48397054996470    7.99858102931845    7.35097937355161
O         1.32754951126959    5.11651758177798    8.87909695571757
N        -2.35703478072093   13.68838801293137    9.87813751488571
H        -3.14478320225337   14.27897873353498   10.12527832251461
C         0.87052691978732    7.18193898683435    9.08609728265823
N        -0.09333445255292   10.50976888340171    9.32608335547805
C         1.92647017055289    7.01027175417603    8.10945252431385
C        -1.27221432756112   14.28365690917401    9.29104242582817
N        -1.20868907228542   15.62654046231790    9.43406990982611
H        -0.44995671218884   16.10398982157954    8.97706944046096
H        -1.99640404241266   16.17110503042199    9.73730952147627
N         0.54679671273608    5.99705249401808    9.51715255761396
N         2.17522044357059    5.73149719679206    8.01471308876932
H         2.39289154911782    8.90493783136137    7.80124716432159
H         3.39890394516432    7.77795936187350    6.98609539642194

