30
CSD_code = YIYKAT | q = 0 | S = 0 | Stoichiometry = C13H11Cl2N3Pd | MND = 4
Pd        0.29456645362825   10.80212081853705   11.64799247400466
Cl        0.29883775363851   12.81185243627659   10.74123063477714
Cl        0.32575021339771   11.76988743316663   13.64034897914611
N         0.26741714175520    9.75039660987070    9.90866435784990
N         0.25866413847512    7.76497294578102    8.89194404477395
C         0.27472996209624    8.43065088075588   10.08971004111839
C         0.24514675984453    9.97656189055525    8.56154175981351
N         0.29600598284598    8.91384200364301   12.37697299808383
C         0.29201017837143    7.92514411392306   11.44458953233836
C         0.30243928459503    6.58292521597297   11.83178383739268
H         0.30203129689368    5.79567855699231   11.09983410887511
C         0.23951083143785    8.72450996970849    7.90687160359592
C         0.31493990917123    7.28471111544582   14.11410263856788
H         0.32255007939601    7.07398588060446   15.17071030748934
C         0.26325969301098    6.34993499280433    8.64549002188713
H         0.24801989479437    6.18877776060289    7.56973982073079
H        -0.62104761968402    5.87590053502405    9.07653031926411
H         1.16597689786232    5.88676277483152    9.04944086334634
C         0.30644608812206    8.59359594926128   13.66950117003745
H         0.30852879589198    9.43207943824742   14.35860015025630
C         0.21683657764779    8.64048383243193    6.52009980569749
H         0.21213119226460    7.69353466461664    6.00206290115724
C         0.22764088218800   11.16751582648274    7.83703290315395
H         0.23265595932304   12.11230181196279    8.35911112762006
C         0.31409234215434    6.26051512614605   13.17548103347765
H         0.32246756608052    5.22678625006940   13.48474144870814
C         0.20505355075648   11.06768584102482    6.46461921538985
H         0.19059281188608   11.96620712947544    5.86781315360160
C         0.19980561324838    9.82708585055586    5.81806614156725
H         0.18173976890631    9.79749234522966    4.73917260627792

