43
CSD_code = YIYMAW | q = 0 | S = 0 | Stoichiometry = C16H12F3N2O8ReS | MND = 6
Re       12.06067250166035    4.98464074316032   13.20088964285294
S        10.70817108437735    2.58304263510296   11.82171857353585
O        10.76113924715174    3.15372643474640   13.16297006013532
F        11.96728957959960    0.47758572073676   12.83312490605581
O        11.88745206685910    2.85571170243561   11.03432005510152
F         9.82110617663522    0.37928315298887   13.01459814211846
O         6.40563782236089    5.84711332071936   15.61153134520193
F        10.75986711618061    0.00172496468457   11.10902133205694
O         9.44632661320897    2.73409391154439   11.15694696605238
O        13.42341098857385    3.98760648901436   15.78558957769027
O        14.40307228086402    3.76200378836178   11.56714954766033
N        10.25251254847107    5.60477707106644   14.13805954923391
N        10.77730272327195    5.47446771446176   11.56734272940422
O        13.46631680601702    7.72731746230697   13.34203512532908
O         7.83339240637808    5.24258152541779    8.69770593087643
C        13.51207271602306    4.18091661496855   12.13533540232131
C         7.89368915668906    5.70318929818204   13.82492126966407
H         7.03289730607084    5.70297473376432   13.17930519314594
C        12.96886098037527    6.68904873035305   13.28203800950444
C        12.96100483075089    4.38122421545658   14.81484430436035
C        10.19899488893236    5.30844638091687    9.26002378342707
H        10.55300577049876    5.20435768081679    8.24855887466956
C         8.48642609358338    5.48452681741824   10.91808051384144
H         7.43956074745345    5.50669082986200   11.16494352341770
C         8.80486191141764    5.78054081895169   16.03164064602759
H         8.72745994027525    5.84160545295042   17.10397846368870
C         8.83955308503682    5.33201431536675    9.57423263058737
C        10.82038002964737    0.75419935831731   12.20900964216479
C        11.11410637444627    5.38553016687476   10.28937701320080
H        12.17387179092469    5.36887579363134   10.07691877871274
C         7.68022449880251    5.77657158459388   15.20394045476464
C         9.47308261689072    5.52763606124225   11.88527397710814
C         8.13396173618260    4.96649510589219    7.34462331299497
H         7.17157185326073    4.85900455868063    6.84772937359893
H         8.70026989513666    4.03676990073586    7.24927915275051
H         8.69024430220477    5.78865862437962    6.88476349970661
C         9.18198045031762    5.61524484470191   13.32457470079592
C         6.13300558419539    5.91231184993736   16.99636530401794
H         5.04862998445696    5.95122853537568   17.07870573337949
H         6.56424138371134    6.81194375198718   17.44422279905675
H         6.50529498045604    5.02615364176124   17.51735944353823
C        10.05181224945199    5.69044676794646   15.44629392995238
H        10.94006488120047    5.69331692819846   16.06325678629051

