74
CSD_code = YIYNIE | q = 0 | S = 0 | Stoichiometry = C28H39N3P2PdS | MND = 4
Pd        9.27584833239072   14.29832865439285    9.20999791954577
S         6.33036657416003   17.45180673691146   10.12534126014993
P         7.94460596395974   12.45279453709081    9.39525701640494
P        10.59345774478913   16.15380586239966    8.83547794819131
N        10.45224794718113   13.56816419837887    7.61831579846830
N        11.74787134193921   11.54680352790757    7.53917875137553
N         7.72861133866204   15.27516629019197   11.64689122274873
C         7.80993130122453   11.52479199859386   10.96953802262282
H         8.78217011268936   11.11827498038863   11.24422592069640
H         7.09970488189315   10.70694894580853   10.84708767523398
H         7.47590854576129   12.18609031270353   11.76647890452122
C         8.26626498595657   11.09305150504477    8.21445806511091
H         8.30602875226336   11.49679522541115    7.20317196455523
H         7.47945534556373   10.34167755715958    8.28456243769177
H         9.22876086741105   10.63284771067898    8.43393927026520
C         6.18019155477455   12.81067707488793    9.04046239365393
H         6.08898221006443   13.22555696800390    8.03630729234530
H         5.80560164974414   13.54235461673599    9.75549571561166
H         5.58961195917474   11.89719883978813    9.10926613362487
C        10.39493357306140   17.78782997540875    9.65884248247354
H        10.54448296676695   17.69568786506518   10.73238755604802
H         9.38924100991303   18.16607813017814    9.48306851879038
H        11.12039101216305   18.49302214090044    9.25486940337855
C        12.38441162533962   15.85350687833917    9.06160723933317
H        12.65830322791183   14.97263599025821    8.48204647926016
H        12.60380324703105   15.67274668139560   10.11335253743500
H        12.95574331714055   16.71422698154976    8.71351451410598
C        10.53168919427426   16.67350420871082    7.08250465104743
H        10.67023380080710   15.79087404476317    6.45923451415791
H        11.31990617574292   17.39943394522038    6.88204817947750
H         9.56225870018626   17.12173208383483    6.86509233328176
C        11.08402993454183   12.56947559392604    7.74230672308271
C        12.23981934518225   10.56897044463439    8.34274332048739
C        12.23477620828533   10.64765603180681    9.75005755508044
C        12.72533091533360    9.58083073172686   10.48414036727983
H        12.71620094663375    9.63825591758226   11.56498362566350
C        13.22985035086890    8.45264335591900    9.86282157312825
H        13.60904441056826    7.63120945449109   10.45294211920831
C        13.25253458157970    8.38770912125592    8.47870940184793
H        13.65479048013366    7.51114278569117    7.98900655956102
C        12.76541543287851    9.42658406185873    7.71038246221297
C        11.73643532879018   11.88200858781914   10.44475644516573
H        11.79745964662000   11.76238032479666   11.52500843935315
H        10.68965260090508   12.09826427153464   10.17789141310329
H        12.34046731902951   12.74581194237609   10.15295227662922
C        12.77579522740615    9.37116885718241    6.21263588795380
H        11.76298157263491    9.48046161004026    5.82471338999868
H        13.19287526200790    8.43055624770307    5.86033468217106
H        13.36500895099440   10.19513932691197    5.81039024873520
C         8.03619430500662   15.26713402908479   10.42649203936337
C         8.12594054658809   14.50259457487150   12.71224866415679
C         7.08487176189759   14.06123378378708   13.55088718033756
C         7.38482232002716   13.30038395522994   14.66736805941180
H         6.58201624248632   12.95414662335897   15.30269007310154
C         8.69664671331875   12.98960942926466   14.97901045638594
H         8.92150234090964   12.39731853307889   15.85329661008868
C         9.72017573229495   13.45336983200604   14.17211131919173
H        10.74579378252954   13.22309193917815   14.42460128991252
C         9.45986065944305   14.20706541710388   13.03865871561797
C         5.66624983722615   14.39204087462253   13.19802784338389
H         5.60854494276613   15.40672799555669   12.80814025209406
H         5.02047844861487   14.29658455441458   14.06738415537385
H         5.29718539520041   13.71920711289401   12.42178542092568
C        10.59072115233926   14.72210755950736   12.20036697712241
H        10.49553174152504   15.80207142485687   12.06919983933165
H        10.57618228691952   14.24600582279010   11.20375252626502
H        11.54540455488555   14.50785543133179   12.67601553000269
C         7.32752885680010   16.14749264729937    9.52680029801704
C         7.25993142760240   16.07409548555216    8.15323377209177
H         7.77641970859820   15.31527116873260    7.55667523614194
C         6.42690356245154   17.06029340302588    7.58953681224059
H         6.25094303294871   17.16114859912085    6.53266692455888
C         5.87179487521764   17.87589753878105    8.52617052898390
H         5.21386799801378   18.70836912906501    8.37278086347075

