55
CSD_code = YIYNEA | q = 0 | S = 0 | Stoichiometry = C19H30BrNP2PdS | MND = 4
Pd       -0.33393608894440    9.40958319720025    3.50570680506815
Br        0.02477646597772    9.97477434181908    5.89386003727783
S        -2.72998777481414    8.07489189196063   -0.03039257711739
P         1.24427745231560    7.79309510022682    3.69306633884761
P        -2.07537852533236   10.92070974102256    3.51671675390295
N         0.05364734423026    9.19283133236888    0.57532314261541
C         1.70075994728229    6.65050096088639    2.33477800235080
H         0.80511007301243    6.17846552898182    1.93192518863699
H         2.37864812125519    5.88415354418259    2.70992578274762
H         2.19226881000871    7.21088480594008    1.54204261201884
C         0.83538209534329    6.60367091475806    5.02314036153598
H        -0.07738602325849    6.06580612632117    4.76019146933253
H         0.67187346450879    7.14444355917130    5.95540580637305
H         1.65178733100523    5.89266336147363    5.15084736394147
C         2.88470212266894    8.41638417933166    4.20379327548937
H         2.77514961514815    9.02100541686229    5.10470072845247
H         3.29809189628865    9.03384528856165    3.40479334514673
H         3.55434364101729    7.57970955695931    4.40309073841074
C        -3.08462232591782   11.34273662602025    2.03833899367195
H        -3.63763092702966   10.46717532666782    1.70332740733618
H        -2.44053970373133   11.67538827757691    1.22520007746555
H        -3.78746043008473   12.13651899661167    2.28894313883812
C        -1.66720969269011   12.59503888970214    4.13764976949596
H        -1.13842464293090   12.50680391540967    5.08652388359383
H        -2.58629141860034   13.16235149142753    4.28511382665721
H        -1.02987111325426   13.11650872287151    3.42421364769668
C        -3.38966652682045   10.42627561195541    4.69185648663266
H        -2.94469506369010   10.26281823219404    5.67395491940142
H        -3.86138939296507    9.50309824202441    4.35380820835834
H        -4.14079250733774   11.21360206295292    4.75812316646585
C         1.36634467642960    9.60385007089061    0.47606619311084
C         1.97431343234212   10.63994746672758    1.20631435975182
C         3.32865660655481   10.88491880843954    1.01310579698939
H         3.79931907644867   11.67611872437422    1.58044357108065
C         4.07818566567266   10.14591361617103    0.11897357420161
H         5.13191136505367   10.34773468312285   -0.00301600077980
C         3.46216393587918    9.16708261560031   -0.64239726236005
H         4.03340585270158    8.61077476837375   -1.37194607093188
C         2.11495854722038    8.89683957532485   -0.48775206565619
C         1.21211740641735   11.54197513201185    2.13650297584400
H         1.67359643344038   12.52947875463891    2.14913394725179
H         1.23662743231066   11.16181549686442    3.17902441367444
H         0.17559981325525   11.64847287630985    1.79730894514447
C         1.44366397878502    7.84539794541655   -1.31914023384181
H         0.43834771393818    8.16685984276471   -1.58279422820410
H         1.35171533739401    6.91060778475523   -0.76521969872220
H         2.01533327071698    7.65162970781512   -2.22357604056448
C        -0.64379649480466    8.97129568686847    1.59934955641308
C        -1.90702543596758    8.29661472976565    1.49331210664996
C        -2.59009596483389    7.67129339572457    2.51059130607842
H        -2.23786737366730    7.64543462225538    3.54397252628128
C        -3.76817463989164    7.03456788817061    2.07701470040700
H        -4.43319560435447    6.49636396469535    2.72954318293707
C        -3.97612841420757    7.17941501514586    0.74050481446450
H        -4.79451283950324    6.80946158435377    0.15481093012170

