122
CSD_code = YIYPIF | q = 0 | S = 0 | Stoichiometry = C56H57N7OZn | MND = 5
Zn        9.01327628530575   10.78908199287787   11.56635960376204
O         7.93694970417953   10.44401899269954   13.12980449067555
N        10.89059158848691   11.31455704646384   12.32840434143703
N         8.62642883032152   12.79375917932037   11.22744453799448
N         7.64185154131433   10.39280344909902   10.06096119605963
N         9.79279451005206    8.89934807437173   11.31905371170848
N         9.70650973984841    9.74930159520487   16.32436741070055
N         8.72913050758400   13.20828386312882   15.62126787494879
N         7.34295615953213    7.92911940525806   18.41353492769242
C        11.85530186404202   10.48185265537854   12.71972181538345
C        12.99172260476235   11.26516347748521   13.27172442033303
C        12.52328729825999   12.62418204763682   13.25662017826712
C        11.26285425413791   12.59918192553960   12.66858608220450
C        10.46973362029946   13.74884782498838   12.48237399125154
C         9.26493244128462   13.82758433303704   11.84389607213069
C         8.50146082537200   15.05810659846955   11.67522890217874
C         7.40883613900574   14.72771503110278   10.94329247465938
C         7.51859252788130   13.29931694531181   10.67198007247917
C         6.61365459556437   12.58426562278615    9.88752206418962
C         6.68860133029162   11.23950203136386    9.59888951287655
C         5.73322257740070   10.51525383852291    8.76849244039789
C         6.13768215888324    9.22029387878320    8.76910650876790
C         7.33252980797952    9.16823696859099    9.60246461619949
C         7.99291431313276    7.99716588125842    9.93968174452945
C         9.07265879842393    7.88213623616083   10.79706296721501
C         9.57446923591334    6.60964368619171   11.28446473456380
C        10.59424422638904    6.89530389711847   12.13498816210155
C        10.75258749384814    8.35098615460882   12.10132071004776
C        11.76600510187242    9.08090742702932   12.72459423367855
C        14.24076390102317   10.89257848606582   13.61434618506799
C        13.30676683155642   13.81859567702283   13.66902375626754
C        14.06535083864529   14.41077384162075   12.47530142152933
C         8.91378992286093   16.38307070020625   12.21211525649599
C         6.26809153789666   15.59094695929327   10.51971501360313
C         5.06881398355764   15.39772237644917   11.45141130595284
C         4.53092609474276   11.11798230677596    8.12339081626249
C         3.36331428728643   11.18802311209745    9.11144801898593
C         5.52495834803063    8.04122350942170    8.09922693093996
C         8.98324283924497    5.27910898315179   10.95646301822072
C         7.74724500602382    5.00445332593780   11.81733065141147
C        11.32006773153575    5.89857636434388   12.97316832397310
C        12.82829492459356    8.33493768533564   13.44122191459889
C        13.78972578851085    7.73506900666484   12.65873469584875
C        14.88165676910800    7.06498615057301   13.22003827499807
C        15.01047738198870    7.01752005275500   14.57800334027298
C        14.04322280952221    7.60566924969631   15.42038628387049
C        14.21344021454327    7.54225232149838   16.81912252944813
C        13.29246522879816    8.10261571089591   17.65377812300780
C        12.15229156864500    8.71150386866698   17.11838990235393
C        11.92750691660336    8.78353075345984   15.76452255148032
C        12.90502617871670    8.26157647441038   14.86419249756661
C        10.65461295384530    9.42148567499336   15.27408993749116
C         8.94838533572721    8.59110195275487   16.75524666260032
C         8.30766925260933    8.78624327818038   18.10250995274464
C         8.71889305509899    9.78825105452385   18.97817437211922
C         8.09813093870771    9.89123984997687   20.21037995418395
C         7.09272741169602    8.99259568529502   20.53282164397481
C         6.75752929825246    8.03110399308779   19.59268457401128
C         8.84471603118793   10.83982532383090   15.90513657167728
C         9.49001433782929   12.18622679039547   16.00000125336926
C        10.79446308316430   12.37718307484057   16.45832134791756
C        11.30878051595224   13.66011756379842   16.49837490960787
C        10.51508169391718   14.71829486712374   16.08285388834657
C         9.22660264229680   14.42728696649025   15.66204032823208
C         6.62042717150296   10.83179233784195   13.21538277619473
H        10.86906658323043   14.66595454223425   12.88971713687065
H         5.78431277226891   13.13549193551074    9.47031145819529
H         7.58492449588093    7.08116466506417    9.53825671101398
H        14.94453805675300   11.63217042348469   13.96034038912100
H        14.60825973556861    9.88890349175227   13.54200812043899
H        14.01824382059867   13.54336209327584   14.45001740620513
H        12.63824129712511   14.57681383075179   14.08032751890052
H        14.63204943994629   15.28650349944151   12.78362558489871
H        14.75380116738390   13.67713436969917   12.06231668983088
H        13.36754876990025   14.70149180394977   11.69372718513234
H         8.15389052092830   17.13447206553812   12.01377704245791
H         9.07118802849626   16.32426160869893   13.28811144926085
H         9.84836172455240   16.70575857206276   11.75173206142055
H         6.57296301617515   16.63938469101294   10.53565927014881
H         5.97800805450243   15.34831151010513    9.49457923339819
H         4.23205517407418   16.01464020430426   11.13019322893996
H         4.75461628688763   14.35663180361929   11.45763284447989
H         5.33595463178684   15.67461631720285   12.46859879212525
H         4.76567252045442   12.12185034990544    7.76262224445573
H         4.23634554329917   10.51675503527463    7.26041008342590
H         2.49347335886178   11.64399238683497    8.64337827693948
H         3.09454344513391   10.18865039212268    9.44612548449797
H         3.63824958289553   11.77481071855126    9.98497316460333
H         4.69566621109314    8.34580536527542    7.46570697616505
H         6.26160339433205    7.52427614740722    7.48471737450706
H         5.14797739947760    7.33612335450231    8.84067977616706
H         9.72412021080605    4.49431908263901   11.12114157598711
H         8.70508920941627    5.24956194591464    9.90044544778697
H         7.30674257446790    4.04405609341062   11.55734865924867
H         8.01699905781529    4.98951929642694   12.87075072388576
H         7.00300375118259    5.78371122528395   11.67185157248871
H        10.74698241369267    4.97492770473201   13.01736667815524
H        12.30380979557646    5.67065159841605   12.56395982412883
H        11.45677587190525    6.26424073901254   13.98820211142746
H        13.70244541033156    7.80826945920763   11.58397930335916
H        15.61891451624395    6.60815578873623   12.57629047233236
H        15.85748026168539    6.52619525384525   15.03489884709926
H        15.08856465603088    7.04386828928586   17.21061533688504
H        13.42437773633747    8.06990246659529   18.72546658677079
H        11.41897388428715    9.13052867115524   17.78940442697224
H        10.17504732277323    8.78295010254183   14.51769810511625
H        10.90582243881370   10.35968786944446   14.77942786366490
H         8.16673286031683    8.31489330560615   16.02950084699735
H         9.63173134409162    7.73835866526173   16.83137380177111
H         9.50004165051160   10.47191501966528   18.68608720616970
H         8.39358294647579   10.66095676534958   20.90971161554444
H         6.58331635920773    9.03816404382900   21.48286957123365
H         5.97927934807987    7.30392930695222   19.78773214515969
H         8.51340477680873   10.70542401469042   14.84457359894176
H         7.94002537160210   10.84675626150010   16.51811305605667
H        11.38334070551277   11.53790040547177   16.79207285218838
H        12.31441979948429   13.83397607527883   16.85670392626193
H        10.87904985763907   15.73497682520398   16.10085390224149
H         8.54755620759262   15.21223116524006   15.35117786660021
H         6.51890181755555   11.91266993399769   13.40504536278519
H         6.06724131306516   10.60911133524333   12.28969302032455
H         6.11881859254868   10.29087472321052   14.03453940579531

