68
CSD_code = YIYQIG | q = 0 | S = 0 | Stoichiometry = C33H30N4Ru | MND = 8
Ru        4.17375076547142    1.91418146313608    7.30498234737229
N         2.18653361464725    1.37585475947228    6.76514559773944
N         3.62237344466616    2.17552102857238    5.31564735200341
N         3.60272687098504    3.89360900708333    7.70676164809417
N         5.65147301792912    3.42902074735832    7.04767863619138
C         6.91832328273737    4.76835151750829    5.47091149653179
C         5.17138780984621    1.55307987187758    9.16907085182212
C         3.89995562386256    0.96855292665088    9.19708337663543
C         4.08686204306767   -0.47446667030077    8.72287502429076
C         5.47933906320355   -0.80159671224853    9.27759221203819
C         6.12239266710050    0.45843842700624    8.68058322186929
C         5.66889116776988    0.37963210644890    7.22199499960454
C         4.40263967348187   -0.21387784668744    7.24747344702041
C         1.06009996356836    0.68102578058963    7.16424338399974
C         0.45059962043133   -0.26017483351212    6.32767826675945
C        -0.66756496684352   -0.95126711983624    6.75138951219996
C        -1.19577442608092   -0.72771683063766    8.01197663863202
C        -0.59584240879751    0.19958857469640    8.84933161664101
C         0.51929632990109    0.89850611942073    8.43434339105058
C         2.39739771918310    1.75782063725241    5.52555375249660
C         4.05356475565510    2.81903324476343    4.17139873836503
C         5.37012236965820    2.62472183587323    3.74517137539226
C         5.84443541577341    3.27176830791452    2.62301226440557
C         3.71154518406098    4.32071847668212    2.32006853664754
C         3.22704373071606    3.68072089107535    3.44439861114942
C         2.60911473759231    4.67936672531440    8.26166945848012
C         2.90831999428306    5.76539199514445    9.09122351691290
C         1.89312304955873    6.52409722368144    9.64024338768461
C         0.56701213575966    6.21518838851628    9.38665918152073
C         0.26128757840717    5.13559509964843    8.57316710263288
C         1.26809464613047    4.37587466727699    8.01322179094501
C         4.77708936090024    4.36032911859397    7.35426819796070
C         6.83710911179121    3.72321337414967    6.39862425456930
C         7.97996538338442    2.95804754791339    6.64216249959395
C         9.16235769841665    3.23211862932614    5.98488761348802
C         9.23413609615528    4.27327202887309    5.07338748833474
C         8.10681991536834    5.03775754350886    4.82259324145891
C         5.01794660269171    4.12141405435085    1.90462294145375
H         6.03539388820143    5.34685285514167    5.24009113676059
H         5.50066672837938    2.36968158265980    9.80505743858882
H         3.09568267840958    1.26429412555141    9.85944705252094
H         3.27661170462597   -1.16837497931067    8.93509605019268
H         5.51224295458729   -0.82214365936821   10.36708449251526
H         5.89523295482732   -1.72539322403952    8.87458547654405
H         7.18343779719572    0.60673619250102    8.86796563382638
H         6.36486730601719    0.33254888037888    6.39257031396609
H         3.97192892363805   -0.80888010399459    6.44688636536533
H         0.87147929620078   -0.45633879955796    5.35147078616450
H        -1.12612826093664   -1.67639196689794    6.09431781762354
H        -2.06729040737084   -1.27393549331674    8.34017202165346
H        -1.00489905640017    0.38239851945413    9.83251565259476
H         0.97508947993552    1.63672158249896    9.07652977757813
H         1.62685538069992    1.72658337277460    4.74604171330832
H         6.00645334698105    1.96079999752961    4.31207545662363
H         6.86585474510014    3.11522577800029    2.30857845824312
H         3.06554068006751    4.98866964226950    1.76830035348748
H         2.21574884270508    3.86135624692147    3.78089716585591
H         3.93937795300659    5.99601068701017    9.31834109460902
H         2.14002957519488    7.35902119737265   10.28038881603464
H        -0.22206445970960    6.80806093693141    9.82425679058915
H        -0.77032531990670    4.88528638989767    8.37154342919273
H         1.03339397794300    3.53965225910644    7.37220918746469
H         5.01033206352859    5.43091245738251    7.32113628048450
H         7.92573892280945    2.15368834228781    7.35813717571018
H        10.03725308741971    2.63040456813054    6.18597868078890
H        10.15962481995991    4.48317294490541    4.55839684363707
H         8.14909745585336    5.84496195801037    4.10558052542550
H         5.39112429860791    4.63030560331038    1.02855103866088

