81
CSD_code = YIYTUW | q = 0 | S = 0 | Stoichiometry = C27H44ClN4O2Si2Y | MND = 7
Y         4.19410917941880    3.18581206836376    9.30518488635234
Cl        4.06711749227929    0.98928690287697   10.44124207039279
Si        5.70803614571544    4.35291812244469   12.53341264723433
Si        7.84078644333902    3.27654038160425    8.21632631035841
O         1.73512342386114    2.33381326568536    8.79953387980887
O         3.93029946165871    1.64343091315400    7.18524948746022
N         4.60256123044373    4.37412269861596   11.20600260311712
N         2.85374234135518    4.98686365042930    9.95375797794571
N         6.17969958902714    3.74111540087747    8.28095420103369
N         4.29277158074459    4.76197638319780    7.64733304445637
C         3.70435047811954    5.30200347787894   10.90317954551123
C         5.60335010997554    4.78803283378245    7.69429293918909
C         2.03674595544637    5.99176010625803    9.30873891182421
H         2.36840891221894    7.00749248111644    9.56677659897000
H         0.99085892079635    5.88810498631748    9.63440475684100
C         2.09323176756852    5.80228609482906    7.78565913313550
H         1.45999270778687    6.55544290412878    7.31084738386657
H         1.70681403828995    4.80758610417643    7.54804452626836
C         3.51647659030440    5.90909335272641    7.22482527037104
H         3.45943372144091    5.94286040530828    6.12558323236999
H         3.98009078775192    6.84946979791696    7.55872366392982
C         3.68552423710938    6.61205058428936   11.60178964406842
C         4.47911373652554    7.65914884310027   11.14709446839028
H         5.09996335377288    7.51370749385763   10.27447598438597
C         4.47154613882374    8.87579307634236   11.80589280825560
H         5.09179911505729    9.68486824386129   11.44786505807478
C         3.67270220243236    9.05609260516627   12.92268523929334
H         3.67119934871647   10.00472601684399   13.43923041789469
C         2.87291442312745    8.01905926700601   13.37292733319733
H         2.24518257749005    8.15894064412030   14.24105052417101
C         2.87290042216431    6.80302864735371   12.71244830252235
H         2.24731536231315    5.99229601522514   13.05573669203189
C         6.40631633460325    5.91239631844913    7.15832142782855
C         6.48707045349697    6.15743196306217    5.79290784690885
H         5.96338819170789    5.51026635728813    5.10424657090100
C         7.25043741178367    7.21004481820513    5.31985764080694
H         7.31929982816925    7.38904201339920    4.25664418333920
C         7.92466746167045    8.03429515675601    6.20536648478047
H         8.51724275993071    8.85740219956896    5.83395817084956
C         7.83808346388590    7.80105245029746    7.56796748871638
H         8.36140117119609    8.44396432044274    8.26098193239315
C         7.08526105270261    6.74240840604982    8.04298003200820
H         7.01491124606895    6.54473443052787    9.10295052538444
C         4.82422847985583    4.30296668992845   14.23121970244707
H         4.40442065205264    5.26994863697007   14.49168199865785
H         5.51798247516152    4.02251227330675   15.01694463392350
H         4.01707937894167    3.57669605828410   14.22972002622584
C         6.92077808523621    5.83856151619555   12.57036297268017
H         7.31867829908047    6.05926817994176   11.58450684540032
H         7.76208648766699    5.63228681471836   13.22427138637503
H         6.43322361952583    6.73701808399794   12.93628983184483
C         6.66972030638615    2.73213258402618   12.25013441487929
H         6.06792221095206    1.87360498543990   12.53429696705340
H         7.58790377813931    2.69545537367027   12.82793169528346
H         6.92500709325255    2.61613090829989   11.19776506628349
C         8.60627489102531    3.47245361103805    6.46755318489510
H         7.94187513681929    3.11262510088958    5.68679149856838
H         9.53474858002328    2.91609071776907    6.39085081483839
H         8.82935649712519    4.51251477355875    6.25133615874617
C         7.76734354080909    1.41361063062817    8.65398954682746
H         6.78428507434345    1.14015182359327    9.04014480929503
H         8.50070375460098    1.15731537960392    9.41121747580329
H         7.96822680727609    0.78547808955702    7.79095592091651
C         9.00252861337442    4.20249284933074    9.42392277936345
H         9.24450530360043    5.19710040310793    9.06023132605142
H         9.93719362619848    3.66196418737369    9.53843290325101
H         8.55902878836894    4.30366214057160   10.40953232185046
C         1.77190308546424    1.11107418907946    8.07456105735581
H         0.74963635762077    0.81119118163161    7.79903870296516
H         2.23800755318322    0.32921787868296    8.69115625648632
C         2.59890578905180    1.32338320281141    6.81338619389172
H         2.59028029189055    0.39982821738255    6.21604235343302
H         2.17131622852267    2.14420623173498    6.21667644470494
C         0.94234114536964    2.21270845144007    9.97436590943634
H        -0.09116339267143    1.95960519510591    9.70744304815155
H         0.97393854644319    3.18276753668218   10.46965649467921
H         1.35057347678830    1.44406952623004   10.63947352359458
C         4.79170240815099    1.67904842617765    6.06101275735600
H         4.80773470787402    0.70282332091634    5.56145764234834
H         5.78477004040340    1.92166681624794    6.43435720253338
H         4.46971111182275    2.44570581117820    5.34633628496425

