85
CSD_code = YIYXAG | q = 0 | S = 0 | Stoichiometry = C22H48N4O6P2S2Zn | MND = 4
Zn       11.24436517040030    7.13639075416171    3.10643236681449
S        12.39306947598980    7.04087364862544    1.06880740280908
S         9.85746914190237    5.49437878773112    3.97747960918283
P        13.72785178052730    8.06177403086495    3.83908589066096
P         9.14915692347816    8.53643156653601    4.38491716236926
O        13.09938922626759    9.40716244043131    3.30439137911072
O        14.82620774055131    8.56385935976526    4.86230740154094
O        12.62087754659078    7.30021824474634    4.49856505347120
O        10.16223337557918    8.69621726384861    3.29639700289765
O         8.76252714346293    9.91878698696452    5.05465887620088
O         7.79911845719207    8.07975588081001    3.71564839362301
N        14.75052143868895    6.07647692785089    0.73959596911244
N        14.56433655427122    7.23459694460035    2.70554660768880
N        10.21041567921291    5.57291470813756    6.53632015134849
N         9.57560909616495    7.59537824131418    5.65830233647478
C        16.15803128410034    5.70216581271306    0.84270347652104
C        16.35668999154092    4.80428371364580    2.06671841407962
H        16.03882933629684    5.32921173332389    2.96214140683520
H        17.40328577913081    4.52959065293804    2.16690736307921
H        15.76256879653801    3.89907202002299    1.96780103648966
C        17.02132820347076    6.96174600123399    0.95032293672079
H        16.74573024425401    7.52086826058560    1.83886309312081
H        16.86970874739414    7.59504996118167    0.07950392819353
H        18.07219789150854    6.69195560790778    1.01103807497337
C        16.50640201862790    4.93649474125363   -0.43306642424439
H        16.35431994720987    5.56400834797606   -1.30820353410484
H        15.88586488337106    4.04827586305962   -0.52647067662902
H        17.54759186559696    4.62663684246469   -0.40885288184810
C        10.40387329285299    5.98628566816851    7.92348342939387
C         9.11668920973402    6.61861728269428    8.45751302885704
H         8.29184382449205    5.91446764192798    8.37612354285977
H         8.87594161690218    7.50516867614462    7.87972320411779
H         9.24200031245933    6.89546720643315    9.50101366830699
C        10.73462440487362    4.72374806271864    8.71932628973642
H         9.91917047983427    4.00704974920040    8.65244295509753
H        10.88890431010352    4.97303710171617    9.76575533805588
H        11.64232340369106    4.25889375547007    8.34043150332100
C        11.56717647971106    6.97860729880681    7.99496225749923
H        11.36307212338719    7.82999973906352    7.35265834921535
H        12.48226106337990    6.50621998943723    7.64596997196669
H        11.71015880742965    7.32504555590715    9.01543373038708
C        13.86790366416877   10.31711670672787    2.50600026193246
H        14.75346080423030    9.78478275761822    2.13197002333252
C        12.99180187392281   10.75222307383014    1.34002623925065
H        12.71163851476395    9.88834303647206    0.74208697562405
H        13.52638338401037   11.46304490121291    0.71542004380841
H        12.08346574098942   11.21201297177590    1.72061664189670
C        14.30412439339267   11.48891423806028    3.37433807926520
H        14.85903056215839   11.12185258539263    4.23397682408733
H        13.43013214402328   12.03016798949444    3.72731384778287
H        14.93453289753593   12.16180170644676    2.79857677903258
C        15.88666928820647    7.70147111238103    5.28288454432834
H        16.32951643771818    7.25538277451477    4.38500063647221
C        15.34910566249025    6.59776658691151    6.17986112169957
H        14.57307843175084    6.05354782410499    5.64662093242400
H        14.91685408361923    7.03119735096076    7.07875466334381
H        16.14789463823573    5.91365236795818    6.45546660621345
C        16.91190314750693    8.57574824672369    5.99204396381792
H        17.26900085112232    9.35331709778611    5.32212249078878
H        17.75435861363872    7.96985999448733    6.31335708820491
H        16.45747616952491    9.04612151841103    6.86012821286973
C         6.68406619268707    7.68167148630579    4.52254585451549
H         7.03862688305475    7.51110842935439    5.54761663212024
C         6.14120682135861    6.38204458215487    3.94489420280838
H         5.31441240542147    6.02063261601769    4.55045528528648
H         6.92878888200166    5.63242102999382    3.92471544834837
H         5.79792523928618    6.54874429555315    2.92738045921016
C         5.65290894375896    8.80057320003812    4.51878655342454
H         6.10347936737349    9.71249640183696    4.90148079073212
H         4.80365679414231    8.52748501881114    5.13984533573509
H         5.31189031636560    8.98060058254023    3.50261578177560
C         9.66504801066573   10.55601462874024    5.96397240231602
H        10.11730663225390    9.77830364821675    6.59061893705776
C         8.82989714687043   11.49636199591233    6.82428715505909
H         8.05539346379272   10.93895916668372    7.34475680822019
H         8.35558409013282   12.24557667223123    6.19534705527166
H         9.46308060594290   11.99192825866322    7.55501634357328
C        10.75731085906032   11.28936618626180    5.20042732047095
H        11.31417339671430   10.57951626226382    4.59473160640494
H        11.43469692881689   11.77701690873642    5.89803342519048
H        10.31122101640797   12.03614560125240    4.54687800867851
C         9.89526061594243    6.35176854790324    5.50323157947487
C        14.02552429992697    6.77597031928561    1.61587427550100
H        14.24359369230880    5.77924289931078   -0.08074811493878
H        10.46457902396336    4.62794334630037    6.28897179113498

