103
CSD_code = YIZBAN | q = 1 | S = 0 | Stoichiometry = C48H48IrOP4Si(1+) | MND = 6
Ir        2.48754748618660   19.93182879433077   10.75389487969279
P         2.67383022734932   19.42800471701894    8.44237598258126
P         4.73651647841514   19.18611236977422   10.27516472680145
P         6.02989825922438   19.81728975740787   12.70067711496176
P         3.01525172713656   20.64574119775317   12.91544827423487
Si        0.18135500215497   20.73374073234211   10.58474926107880
O         1.67510507269338   17.23516644774965   11.87323749354826
C         1.91553980057990   18.24736723898445   11.39786852059648
C         4.52802385232179   19.61405058179640    8.48401768129628
C         6.26073960479208   20.03038734485603   10.85615515911607
C         4.77901452013636   21.18117508741303   12.99427813761139
C        -0.01196604411720   22.49015747413724    9.82397467003591
C        -0.74458791353659   19.56786133478762    9.35610980142148
C        -0.82286518990282   20.70401682261985   12.21525193453619
C        -1.04911171624268   21.86715911696796   12.94431904115967
C        -1.78397153030844   21.84839226768032   14.11607772721420
C        -2.31435521110489   20.65898727501902   14.58527134594924
C        -2.10938058494445   19.49130636097688   13.86959353410885
C        -1.36905932355988   19.51744825878658   12.70134491235845
C         2.53438222029850   17.73498350806956    7.79423141370894
C         1.77762612649621   16.77563130167853    8.45183321790494
C         1.74019061530637   15.47515612702733    7.97916263492700
C         2.45184291217010   15.13135939456139    6.84294204660736
C         3.18489340488504   16.09356479043859    6.16434988707651
C         3.22646320549890   17.39178481172413    6.63376015814307
C         2.12463589255291   20.47341609221049    7.06213867840722
C         2.46464286508142   21.82379074753333    7.07467208650998
C         2.03466108754667   22.65690692272384    6.05956360021985
C         1.24661878268438   22.15251829966288    5.03665644663669
C         0.88415275744172   20.81560054704896    5.03492210126272
C         1.31492904451604   19.97514448975122    6.04585979867241
C         5.16435850755462   17.42789735095369   10.33436471312193
C         4.88213017063034   16.76730040458371   11.52860238324083
C         5.13500338334954   15.41533166096570   11.65444776052636
C         5.65688111992366   14.70907058273425   10.58247600921662
C         5.93956552448973   15.36123711000145    9.39369176690492
C         5.69913013922885   16.71735003211634    9.26569761830067
C         7.52956685908449   20.67700525831556   13.30159423084047
C         8.37246904678456   19.96001781495163   14.14402275278379
C         9.53314746176962   20.53656392211730   14.62814352516687
C         9.85704099728427   21.83490880950509   14.27327290894833
C         9.02002100624481   22.55472552731246   13.43471325923462
C         7.86023481061573   21.98180102539221   12.94840900661506
C         2.22836916608998   22.13814791704597   13.59956696950714
C         2.22245171869797   23.28173680918022   12.80499346286197
C         1.68122905656632   24.45901908454393   13.28370746506359
C         1.13462246500528   24.50120591285270   14.55729985604138
C         1.13649962931986   23.36531672856642   15.34835394548477
C         1.68264123904216   22.18410146912083   14.87647829659788
C         2.84804119864817   19.42693522434834   14.24885621228984
C         3.88821021456609   18.99248003912946   15.06128389391272
C         3.64665701494752   18.04511752003276   16.04214206964538
C         2.37258700690709   17.53485052113073   16.22574229976600
C         1.32772558022216   17.97832741471265   15.42892341124496
C         1.56429498123950   18.91565090513823   14.44287456680900
H         5.08089269133574   19.02124144518314    7.75446597590145
H         4.77668625490688   20.67331772918371    8.36243776774205
H         6.28497555140399   21.07664204537807   10.53773177101213
H         7.16278759908248   19.50393791447895   10.52877918155489
H         4.95242969758051   21.56839654777110   14.00679356696866
H         4.89974639216414   22.00264186769183   12.28064966271586
H         0.51059474331202   23.25036928260309   10.39324619278990
H        -1.06265986627145   22.76124532582213    9.79290260866370
H         0.36877642981223   22.51463413105300    8.80765345877252
H        -0.19795425967044   19.47711739696232    8.41932283561451
H        -1.72703631680178   19.96822934650256    9.12925274107591
H        -0.88544436191535   18.56851326514815    9.75423143993420
H        -0.65052873790793   22.80276807163166   12.58524930359895
H        -1.94745970463557   22.76593386244708   14.66189926981625
H        -2.89064309457989   20.64203741020111   15.49806216617776
H        -2.52929102530529   18.56021758202989   14.22168886761674
H        -1.21795592393999   18.59816575070900   12.15354232900301
H         1.20862894634499   17.05387486963161    9.32621845417671
H         1.15385510760335   14.73217435771789    8.49779460081931
H         2.42740056313285   14.11669390559613    6.47667430432811
H         3.72274920653599   15.83036826093351    5.26601187873989
H         3.78086110915121   18.14670028232965    6.09101056616854
H         3.05482061551701   22.22026096798053    7.88944494814438
H         2.30671289545526   23.70155409540009    6.06824640536600
H         0.90827799310010   22.80389826791288    4.24584704867075
H         0.26075793035366   20.42489992881111    4.24528937362898
H         1.02631601619374   18.93326693938702    6.04325506441235
H         4.46208657303225   17.32262228517778   12.35916176255250
H         4.91629944614859   14.91145551418604   12.58356454375739
H         5.84413116993382   13.65021974419416   10.67309023826746
H         6.35083681224149   14.81239915140096    8.55994821507511
H         5.93867080034851   17.20953666410423    8.33445238701522
H         8.11043109830657   18.94571630553025   14.41374778831603
H        10.18332188732367   19.97405850705051   15.28073933556458
H        10.76148067445412   22.28833795114677   14.64868128251861
H         9.27380917737591   23.56740450641554   13.15869552644229
H         7.21631832858325   22.55538767510960   12.29640829939156
H         2.63274788282309   23.23268822963407   11.80611716943111
H         1.67929396120770   25.34421704790849   12.66520601945147
H         0.70597032535209   25.41886294009695   14.92991296364051
H         0.71159366699243   23.39574046575769   16.34005841364411
H         1.67971447390074   21.30415641189278   15.50222965542338
H         4.88993161433711   19.38522494337832   14.94365482028903
H         4.45964627568970   17.70802202690439   16.66728265477910
H         2.19301165316421   16.79592749185056   16.99145429613134
H         0.32982759177383   17.59373621039633   15.57398327643619
H         0.75536504020225   19.27394351023326   13.81854393019861
H         2.96837336489342   21.34309230960323   10.29720498573350

