107
CSD_code = YIZBER | q = 1 | S = 0 | Stoichiometry = C52H48IrOP4Si(1+) | MND = 6
Ir       -1.13172774849047    3.52972924851431    9.90355159014500
P        -0.65854935802309    1.23181428496283   10.28609633766014
P        -2.92521431326652    2.27052103083183    8.91436249058505
P        -4.03600521720487    4.16222393841388    7.15432778429691
P        -1.81479094909566    5.52297862740044    8.91774345500573
Si        0.83473504451463    4.56523341536424   10.89814646309067
O        -2.79886201471432    3.92321927104308   12.40577630544764
C        -2.10958189382726    3.79211256648681   11.50341297360522
C        -2.04004941855207    0.65220323357246    9.16201405671213
C        -3.21733217754523    2.47882132168033    7.11543247791203
C        -2.51042949740107    5.24132570925797    7.23515111255917
C         2.40402521885255    4.66327940540346    9.82606028657218
C         3.16742096447910    5.82682032555610    9.81378024252634
C         4.33300206197257    5.90813620049333    9.07393079476752
C         4.76051979303958    4.82151163282411    8.32926612329919
C         4.01335570309627    3.65556144516362    8.33005954157812
C         2.84765066332335    3.58269161066766    9.07019329199030
C         1.26728125116693    3.59382077070219   12.48056859577279
C         2.04586422484927    2.44235999195882   12.42232912591856
C         2.33094779675633    1.71478745001679   13.56375731472848
C         1.84037183657266    2.12872818599119   14.79083418959465
C         1.07352165214672    3.27940560779861   14.86932936976932
C         0.78989991787984    4.00060856774875   13.72328130741512
C        -1.02687869664510    0.35035982532097   11.83021257319451
C        -1.24405657139707   -1.02648070615282   11.79246629224482
C        -1.51942759795238   -1.71108628037417   12.95976922596748
C        -1.57571365075504   -1.03143769813500   14.16809248329328
C        -1.35151934481762    0.33382266625229   14.20838584466691
C        -1.07742871000032    1.02604315116755   13.04132770859125
C         0.80122069121622    0.35173605951990    9.65311992383795
C         1.64215153868167   -0.36264744001892   10.50088795262345
C         2.77047953951754   -0.97995888245631    9.99084969228130
C         3.07214452103197   -0.88287031966833    8.64235444881958
C         2.24581449343057   -0.15835210008775    7.79777255065844
C         1.11953027007330    0.46425369775639    8.30156981879962
C        -4.61141202738848    1.99264196887059    9.51269950203314
C        -5.24971569043109    3.03060702474741   10.18279989772236
C        -6.55133095102880    2.87263772644196   10.62113401529022
C        -7.21580377822931    1.67876790065766   10.39273124284026
C        -6.58316006138880    0.64501659050992    9.71961629772898
C        -5.28242032068554    0.79743544131103    9.27702409615659
C        -4.42184219132874    4.37207583371080    5.37804057623393
C        -3.49381671066546    4.17663921077522    4.35960819277950
C        -3.87005685878959    4.35112500662663    3.04127002564216
C        -5.16922145114846    4.71957401367945    2.72765545049803
C        -6.09743372649300    4.91333735604072    3.73635447397395
C        -5.72437121817517    4.73980933504194    5.05718490619173
C        -0.57773512750619    6.79159554476502    8.50503120426726
C         0.54881692002357    6.38224210333533    7.79594532710326
C         1.50463502564495    7.30455021585801    7.41760163015686
C         1.34790216347892    8.63997627670881    7.75388861996268
C         0.23005323225673    9.05022810153280    8.46077447944123
C        -0.73640628318187    8.13263110924480    8.83506828545318
C        -3.09625127372991    6.42888273648342    9.82591830139554
C        -2.75620896239729    6.82805120658162   11.11990812956616
C        -3.67071279525286    7.50264814896749   11.90418047010771
C        -4.93717324839327    7.77587524420157   11.40778016495236
C        -5.27786943069303    7.38377618787903   10.12450909710023
C        -4.36192102993398    6.71430783718324    9.32969202662472
H        -0.35229991083597    3.30455458580898    8.57381623782537
H         0.64855509080836    5.97752381410953   11.36907983731160
H        -2.65971397298213   -0.11139589879728    9.63854253596006
H        -1.64390565526104    0.27084734662184    8.21571145723056
H        -3.92778274625651    1.73722050195460    6.73531823403906
H        -2.28293288031069    2.45317721066374    6.54851800246921
H        -1.69994095530532    4.83919629416547    6.61748865176245
H        -2.79375267650333    6.22532423087794    6.83735828375777
H         2.84143042230463    6.67865097665895   10.39173892660813
H         4.91125717687856    6.82038566273865    9.07844608846563
H         5.67103364776219    4.88256882270641    7.75189392363676
H         4.34044535247649    2.80152304975033    7.75405133388641
H         2.26723536171078    2.67123470795903    9.05483265661980
H         2.44967694374629    2.12585904898624   11.47129482348676
H         2.94452737630124    0.82754133622411   13.50006059586776
H         2.06265176760702    1.56276432434110   15.68308219679700
H         0.69816142142484    3.61483154971611   15.82516544180273
H         0.19121837836805    4.89807304536574   13.79148550750051
H        -1.17942113601326   -1.55868130296948   10.85193669395252
H        -1.68564283439562   -2.77739856592990   12.93037066640937
H        -1.78914072600367   -1.57135151132325   15.07773131602485
H        -1.38527038674741    0.86392684796735   15.14764570427777
H        -0.88390164399582    2.08813181991245   13.07233676759220
H         1.41342222868539   -0.43305777548114   11.55432111964181
H         3.41864124874486   -1.53627310621233   10.65067277734061
H         3.95421187047725   -1.36512023150923    8.25029440591170
H         2.48416627571398   -0.07214446782094    6.74826524216629
H         0.49178866240720    1.05559498717744    7.64774730045897
H        -4.72470096990887    3.96277593383069   10.35127829073146
H        -7.04546024493309    3.67959694242952   11.14043017166933
H        -8.23087833557633    1.55263143147778   10.73660700125654
H        -7.10664578634023   -0.28118495750774    9.53611292924399
H        -4.79514037782969   -0.00648742645260    8.74075367209876
H        -2.47723878113827    3.88862757919045    4.58856884622233
H        -3.14746751255226    4.19911855405025    2.25329629962219
H        -5.45590193511107    4.85399193153607    1.69599666597232
H        -7.11003598841689    5.19853231856078    3.49488397171072
H        -6.44223281680032    4.88532537477692    5.85320195949721
H         0.67903258768420    5.33598302734343    7.55926658768993
H         2.37603014132331    6.98051655903279    6.86981845617091
H         2.09782637818353    9.36060076913419    7.46633258216734
H         0.10656171733722   10.09024053124474    8.72231926409927
H        -1.60861042403646    8.46205777011366    9.38080934769864
H        -1.76314778902521    6.60708437359576   11.49257827194768
H        -3.40083264878308    7.81315547165512   12.90204975531714
H        -5.65600585923778    8.29582066916073   12.02207438046270
H        -6.26145879760595    7.59986409801927    9.73584102000116
H        -4.64472448552782    6.41803380886332    8.32834363849152

