24
CSD_code = YIZDOC | q = 0 | S = 0 | Stoichiometry = C6H11Cl3CrN2O | MND = 4
Cr        5.26881287362675    9.35713130149625    4.36929530780784
Cl        4.63911785609246   11.17950083640373    3.60323051608142
Cl        5.84780380838394   10.01343864537527    6.41711288312171
Cl        5.84085123603577    7.38000221663485    4.52313745708308
O         4.39482742007662    8.65892334221832    2.12891647192385
H         4.71751804575540    9.43413204155277    1.65268738162170
N         2.60728556711163    6.85703397941872    3.76192885090138
N         3.62924266695376    4.91274970189097    3.96889388381432
C         3.60878050388390    6.07915276658918    3.27986844510569
H         4.29061947136551    6.34759626507453    2.50444607336868
C         2.65170801307610    4.96582068232995    4.91114910784652
H         2.47081361894618    4.15990724997173    5.59241167413333
C         2.01794492669299    6.15959625354156    4.79636672690488
H         1.20511338889177    6.56753782255044    5.35889334055231
C         4.65043675927926    3.91625105615367    3.83384550836978
H         5.61684400269181    4.34676538037165    4.10714415350114
H         4.70322288449421    3.56363253313863    2.80277180527963
H         4.43006752470186    3.07731000368928    4.49010935521078
C         2.50662576227551    8.25052404458839    3.56308047224231
H         3.28385875628758    8.79263898899727    4.27002028348696
H         1.49864344971585    8.59460532728868    3.78486756060078
C         2.97120333569446    8.70272588194072    2.18284158294010
H         2.56950903103398    8.04829133890324    1.39714167706986
H         2.61954909693071    9.72543233988614    2.02563948103651

