47
CSD_code = YIZFUJ | q = 0 | S = 0 | Stoichiometry = C18H22Cl2N2O2Pt | MND = 4
Pt        1.33680225821653    2.28092238554252    5.01505587112189
Cl        1.03312034755142    4.33594862278572    4.13654216500504
Cl        1.84454856105644    1.40304483403451    3.00964001986516
N         0.78243021080208    3.16854189356873    6.79736253592605
H        -0.12240232205995    3.62769819512071    6.82029723745043
N         1.52934915703195    0.46311495970768    5.96384313914488
H         0.59605131652167    0.16118341857655    6.23112275694356
O         2.84853752540309    3.02204779676104    7.53344445086280
O         3.75178156337145    0.11134079054019    6.46261498674732
C         1.64942643194627    3.59464687943180    7.63304996236929
C         3.92943174965890    3.44775281593873    8.33908203945765
H         4.15509961419867    4.50318505938461    8.17171015967297
H         4.77620523812786    2.83804574824518    8.02987133998155
H         3.72822678874935    3.27355325561937    9.39889247799808
C         1.37993264370056    4.66450348935120    8.64848264499454
H         1.71224635949484    4.33686602880356    9.63633474629193
H         0.30114836386879    4.83622207797738    8.69403072079258
C         2.07312470958907    5.95992146546097    8.27211419125433
C         2.69441454656372    6.72525333741970    9.25101006072559
H         2.69706671224976    6.38667845071264   10.27811856060154
C         3.30539442453698    7.92186696956825    8.91980764366173
H         3.78145235891334    8.51108828131161    9.68955364322936
C         3.30699945109008    8.35867298083139    7.60592489367515
H         3.78625930680934    9.29092562112665    7.34761676478267
C         2.69304949719415    7.59602503158583    6.62697433039371
H         2.69101711645420    7.92588319080047    5.59986561631703
C         2.07358785873063    6.40188836675140    6.95408155386268
H         1.60489391674160    5.81778273373305    6.17387571380295
C         2.46227577001965   -0.06435268736518    6.66163280422982
C         4.19662110831436    0.87664841104789    5.34958715503573
H         3.87624950242199    0.41605766859169    4.41168858075522
H         5.28218410561372    0.89054728721683    5.41666510531052
H         3.79645165134272    1.89896177600882    5.38562864087696
C         2.18276081748934   -0.92334655077828    7.87762536719304
H         3.05199566405369   -1.54627322952169    8.08413391052788
H         1.31225092574645   -1.55477286041402    7.69673809555870
C         1.92565385827658    0.02476666963980    9.02289566192255
C         0.66846756122667    0.58783658402846    9.20615470772340
H        -0.14916408197513    0.30810939206859    8.55790053430675
C         0.44835905229371    1.49871233380345   10.22375763531395
H        -0.53386101603706    1.92688652720071   10.35818072154963
C         1.48239280995556    1.85531148549466   11.07330781755995
H         1.30775061425269    2.55886382620760   11.87435719589003
C         2.73811787261048    1.29829957465025   10.89678921921773
H         3.54724776607841    1.56625015944748   11.56107798986949
C         2.95953592649397    0.39372657059639    9.87254383102880
H         3.94201438532240   -0.03203761858690    9.73271479919324

