52
CSD_code = YIZJEX | q = 0 | S = 0 | Stoichiometry = C19H21F3N4O3PtS | MND = 6
Pt       -0.23280215967411   -2.21757611232277   -3.41412406178152
S         1.12437443813521    0.65535241853334   -3.48844773113522
F         2.64170218129212    1.19216075124271   -5.59144918540466
F         2.64954324486927    2.78672611948340   -4.13873956216942
F         3.74089913874580    0.96627442559801   -3.75153741799499
O         1.44481384148632   -0.74376450142141   -3.77136639602816
O         1.21652932731959    1.00617798108073   -2.09828578865123
O         0.00232510472743    1.16152450395199   -4.22317614882523
N         0.98592437423352   -2.93477143708383   -5.30328270221137
N         2.13684171748638   -4.95585288556677   -4.65251099727307
N         1.69736234438632   -5.37640578809476   -2.36202963222777
N         1.43600568943673   -3.00026973066658   -1.96009964912888
C        -1.58419392268093   -3.72453682711715   -3.03298412571812
H        -2.54970627628892   -3.35509749677476   -2.68987414652327
H        -1.19617070759951   -4.37357355231937   -2.24168858558773
H        -1.77585245886195   -4.31991632472194   -3.93103032696207
C        -1.13647105360846   -1.25056566989492   -1.84863045289774
H        -0.94380712086940   -1.78990645759906   -0.92091736060848
H        -2.20782664585195   -1.10674574331198   -1.95929182558125
H        -0.65676771262818   -0.27407172083312   -1.81838723988121
C        -1.70883905693524   -1.46778199154599   -4.62761897541782
H        -2.70842329213767   -1.49215135380217   -4.20056765879512
H        -1.72129963401003   -2.02824939723195   -5.56331572348233
H        -1.43103658471554   -0.42976144357255   -4.80256550191744
C         1.09761029607711   -1.89305918732570   -6.12720781688879
H         0.27149134734707   -1.20100386372226   -6.15292346605933
C         2.19801142686952   -1.64667680196925   -6.94497044468358
H         2.19414225108650   -0.76283100458163   -7.56129799202935
C         3.28139156535884   -2.50076160828624   -6.94006377069156
H         4.15476766047907   -2.31917907283047   -7.54772702636755
C         3.19106003903503   -3.61865973219396   -6.11901194198751
C         4.02055832980790   -4.74421817247386   -5.85298793626070
H         4.98327006125353   -4.93698134418493   -6.28126899878795
C         3.35073527424604   -5.52195482831531   -4.96562504725519
H         3.63724636781829   -6.45527926678660   -4.52010067707995
C         2.02117851978643   -3.77582793310751   -5.32745969113046
C         1.19326584770557   -5.47602764902352   -3.70473743201135
C         2.35460899647541   -6.39113569695431   -1.70533056027394
H         2.32582228111625   -7.38871178659372   -2.10056530787272
C         2.95077776383074   -5.92786337008670   -0.57842144389322
H         3.51779917515541   -6.49416451396223    0.13222071424238
C         2.69066206380219   -4.53011920005304   -0.52661611127297
C         3.05848581049631   -3.49490819292255    0.32593795141681
H         3.65683391897731   -3.67987916336730    1.20529675003235
C         2.63541164284028   -2.22848423327055   -0.01963440425977
H         2.90277268248392   -1.37173801071197    0.57702680527664
C         1.83557985759245   -2.02784892069551   -1.14434108636762
H         1.52750868353989   -1.02300668673272   -1.39110124330240
C         1.89623363401464   -4.21712731606319   -1.66376987549841
C         2.61602835928305    1.46188560792405   -4.27933524671854
H         0.28323248780924   -4.88080069562286   -3.80915434258698
H         0.98848887952944   -6.53215512214514   -3.91620916157929

