51
CSD_code = YIZJAT | q = 1 | S = 0 | Stoichiometry = C23H23N4Pt(1+) | MND = 5
Pt       -2.00617615593343   14.79856478371581   -1.85664091403276
N        -0.36834197641219   16.13423628858383   -2.58214115129732
N        -1.52804765405842   15.83738772305778   -4.65217313892521
N        -2.94267685016802   13.42190398526822   -4.97759852654895
N        -1.10779267924559   13.32886818324423   -3.41544099999121
C        -3.54545470211853   13.54385287454752   -1.35416137548056
H        -3.44410876036861   12.62209624949476   -1.93179513161143
H        -4.48476734483366   14.03190735530138   -1.62454514737541
H        -3.59364973353627   13.28145490385254   -0.29931353680081
C        -0.96111561038011   13.94233365314068   -0.31974102764755
H        -0.95236973609654   12.86427672476254   -0.48546126921980
H        -1.38022346946921   14.15088447198120    0.66186682418394
H         0.04994476380509   14.34882868023748   -0.37655250743140
C        -2.75250772975482   16.16971939062470   -0.52747007789191
H        -2.84313650391372   15.81358726077823    0.49580173196766
H        -3.74347674220745   16.47536991997559   -0.86419386229413
H        -2.08352911475124   17.03161338522522   -0.53916711658571
C         0.80744984593678   16.47112385695625   -2.05898930692940
H         0.85547843127922   16.50839509980083   -0.97972707442107
C         1.92971880659660   16.77083511413541   -2.82675803374175
H         2.84554165430892   17.03757964996632   -2.32525304121179
C         1.88201433758820   16.70491642964931   -4.20887700037919
H         2.75485763963450   16.89817137161835   -4.81211483338865
C         0.66022325501352   16.37814355294885   -4.78876170643040
C         0.14991468665040   16.19147929896271   -6.10538057150949
H         0.69853978169072   16.29425632054809   -7.01902398510882
C        -1.16476708733035   15.87078841556524   -5.98225436978536
H        -1.89412618593833   15.67202834088243   -6.74388272365877
C        -0.42764428221962   16.13767353802147   -3.91147074525021
C        -2.84889228609201   15.69721499648366   -4.15935376845058
C        -3.49137855776634   16.80093809533087   -3.58866379556897
H        -2.92380410482032   17.70241456726359   -3.40303730933435
C        -4.85671155606831   16.76606900079844   -3.35038253518340
H        -5.34469614250168   17.62734809164121   -2.92230167900198
C        -5.59844655277078   15.64934049740044   -3.70246659428637
H        -6.66593981437663   15.64034529185174   -3.55049017873633
C        -4.97481352014073   14.53750890839278   -4.24312482428717
H        -5.54367639024482   13.65557903096342   -4.49424394075992
C        -3.60133655493479   14.54189957336880   -4.45723823848271
C        -3.31121923218486   12.68001375551779   -6.08066552023583
H        -4.21436753254176   12.91756937471767   -6.60805619121343
C        -2.37907829989058   11.72961565066183   -6.34249281495247
H        -2.39504367751062   11.01908946619018   -7.14309479858368
C        -1.36381556956356   11.85691776594024   -5.35160584499464
C        -0.16403599432340   11.21688776596041   -5.06712201256296
H         0.19255812013609   10.39822761908603   -5.67164820080125
C         0.55047857382593   11.68020431260362   -3.97704595972166
H         1.49754022831973   11.23861865551687   -3.71396582843337
C         0.04906218708286   12.70857740854147   -3.18689424612070
H         0.61312421860135   13.04946480174063   -2.33134538125934
C        -1.76237842600077   12.92517854718284   -4.50443971823027

