40
CSD_code = YIZLUP | q = 0 | S = 0 | Stoichiometry = C18H17ClN2OPd | MND = 4
Pd        6.98400331451605   -1.32198186997806    5.25240465069323
Cl        6.86860248228953   -2.95810241098633    6.86120792528829
O         4.16175961330584   -2.27712010545154    5.54565790837835
N         6.85152717167657   -0.05359912164211    3.65883773117562
N         8.89018898461670   -0.81116133706727    5.47060681728772
C         7.55141408245844    1.49672074774315    1.89855954995814
H         6.86644850128759    0.97087910216163    1.23708021810475
H         8.48326212759566    1.68219712876417    1.37184480842768
H         7.10814941795817    2.45897341079212    2.15061297344808
C         7.81093550024046    0.69958062320048    3.15256166324794
C         9.08413946153781    0.79578883338260    3.70565702681390
H         9.76680739737778    1.47607703357009    3.22102234452198
C         9.57585831900019    0.10649886964233    4.81536750664604
C        10.97232839843202    0.43841118826984    5.27596956393929
H        10.97544991556850    0.65475043166607    6.34362586436241
H        11.36328772092940    1.29713681821829    4.73865378297313
H        11.63597380966898   -0.40889974148007    5.11035199420840
C         5.58831950846188   -0.14382962611142    3.03554478632644
C         5.19577219987981   -1.37456273884087    2.49987221893182
H         5.89169119416494   -2.21138119489639    2.54968212707113
C         3.95002824444265   -1.51560678163414    1.91955398742029
H         3.65394482300868   -2.46964792261208    1.50979148759920
C         3.08049618127009   -0.43709269021710    1.86679320170946
H         2.10550581650981   -0.55042885714028    1.41816551217791
C         3.46245721192910    0.78233367819537    2.39970512342049
H         2.78261856586489    1.62089879074887    2.37044395456460
C         4.71046404766544    0.93613130901620    2.97665997725515
H         4.99918488762716    1.88165775162284    3.41195099874822
C         9.46632153816835   -1.39259123751315    6.62966261012452
C        10.37974171753814   -2.43781605737908    6.54377776724033
H        10.65384806468990   -2.82643641075899    5.57212871578022
C        10.89698515584328   -2.99491931044953    7.69950540011444
H        11.59590616846393   -3.81541682933661    7.62966977857470
C        10.51733193778407   -2.51143201946916    8.93971563908103
H        10.92247705805070   -2.95194044990368    9.83822485856713
C         9.60260848104085   -1.47417603620180    9.02850902308582
H         9.29174323447225   -1.10737797159611    9.99536443299613
C         9.07765969719664   -0.91322119357656    7.88068181202167
H         8.34076949884009   -0.11459462800600    7.92900509435888
C         5.21528854863067   -1.88869917475565    5.34826916338384

