70
CSD_code = YIZLOJ | q = 0 | S = 0 | Stoichiometry = C33H31ClN4Pd | MND = 4
Pd        0.62265196201774   10.03282775116936    4.87747750192444
C         4.34465984119862   11.62545146459300    3.26881983910548
H         4.22814849785208   11.39248269239644    2.21252737471989
H         5.09147280371566   10.95651034298013    3.69627732477079
H         4.71065222354153   12.64424076183198    3.36588070414499
C         3.03550650210152   11.46688686803313    4.00381847622964
C         2.78702721515658   12.38042733539392    5.02717690632226
H         3.59746956477655   13.04917903310166    5.27532328951124
C         1.54265931053885   12.67942709354153    5.60993557482779
C         1.45538278353691   14.00288349634125    6.33231609768186
H         1.61481220480209   13.85567941138592    7.39991976084708
H         0.47742227544376   14.45832771544103    6.19087874920594
H         2.22019797597432   14.68395331119997    5.96827588675952
C         2.18945747669926    9.74462974199990    2.52701263852100
C         3.30348709018057    8.99028160609855    2.14239619693334
H         4.22947150710392    9.07883481511964    2.68610204720757
C         3.20661614329684    8.07313270128522    1.11223905320402
H         4.07392509441200    7.48418242896906    0.84780190712865
C         2.01754751274513    7.89618960674929    0.42655178198304
H         1.95310505656327    7.17909340999831   -0.37882092788433
C         0.90705532267102    8.64744907557430    0.78602094587381
H        -0.02626317316910    8.51726655600620    0.25635221747267
C         0.98809684278610    9.55323661926240    1.82115178418776
H         0.11573714729986   10.13482341502692    2.12510578109049
C        -0.82805191483407   12.28554322113466    5.76500973587125
C        -1.23739022607976   12.78308644299134    7.00092669283527
H        -0.52501651343996   12.88543225046237    7.80494836816209
C        -2.57179039001082   13.07389293981826    7.22289810561108
H        -2.87876821137559   13.44361869225692    8.19069015889313
C        -3.51164525199840   12.88253632315432    6.22650717514731
H        -4.55105212822109   13.11126871859146    6.40925182891377
C        -3.11743552243888   12.36512713187130    5.00133719306035
H        -3.85165923141811   12.18717207850579    4.22884137802210
C        -1.79209195589646   12.06298157449077    4.77278611031138
H        -1.46791599294669   11.62975303496790    3.82337046431353
C         0.17923446350224    4.89870088848843    2.93880465533272
H        -0.89405659030308    4.86505544777777    3.12375552345774
H         0.63924828259264    3.98988169288062    3.32472790351057
H         0.34715299595889    4.95405073986771    1.86032632057328
C         0.11431431350669    7.22523707305070    3.77150713189849
H        -0.87844306879543    7.43241493397423    3.41795670426586
C         2.02894067232035    7.41412521343644    4.73980882776358
C         1.96911198592237    6.14211045291435    4.20365565120418
C         3.10324542539883    8.11129681760706    5.44595477230536
C         4.43445597319791    7.93498672785942    5.07524121949685
H         4.68175438995892    7.21561507731808    4.30806340572609
C         5.42996828242371    8.68750448619625    5.67193119395816
H         6.45867208039783    8.54903949545163    5.37058718241845
C         5.11055949283537    9.62422873998650    6.64111926676545
H         5.88871531963099   10.22436826374151    7.08925818180487
C         3.79470404314291    9.77447055519904    7.04837117784563
H         3.54932120517178   10.47684333467909    7.83136885595760
C         2.78833662455054    9.01991735545911    6.46589036497442
H         1.76982336538369    9.07743789439407    6.86233741623827
C         2.95740870358772    5.07188067925480    4.24570017441517
C         3.31130711165588    4.37189740692315    3.09393442510335
H         2.85993407182132    4.63181372330561    2.14776693663080
C         4.26603309203520    3.37283640947665    3.15144105722496
H         4.53561151848633    2.83786149410079    2.25264744058932
C         4.87899560800055    3.06251936435042    4.35354619497377
H         5.62287548254377    2.28117268377200    4.39534968546162
C         4.54007932115321    3.76241228696907    5.50080677882724
H         5.01989074267678    3.52682138422332    6.43889917869202
C         3.58676852959400    4.76089096697201    5.45055192361630
H         3.31766547083880    5.30766294853132    6.34155729001662
N         2.12782308939366   10.59381077859378    3.61540024302062
N         0.48310363960212   11.92584370288230    5.44275988402324
N         0.86645159020435    8.06401430797866    4.43616861382824
N         0.73929627168535    6.04390442305616    3.59968322107354
Cl       -1.01118534265674    9.30566258761759    6.30571307409929

