67
CSD_code = YIZPIH | q = 0 | S = 0 | Stoichiometry = C28H28HgN6O4 | MND = 3
Hg        6.52749776249381    8.66722848560559    4.98462346616549
N         7.20812524356619    8.79022410517462    2.58148969118236
N         6.75834470177725    7.65240473235202    2.23842352956831
N         6.30171790102922    6.97224117094796    3.20878172436376
N         4.84406286974197    8.63772866376765    6.78269166097032
N         5.57937348129415    9.03241085538135    7.74004414329447
N         6.75282554594835    9.35972692285007    7.37898885645835
O         7.83918133930032   11.15873832446324    3.50390315520176
O         5.62480767085449    5.68785621718186    5.39459102148063
O         3.46711633028912    8.07116718578135    4.62008257036198
O         9.15327151326206    9.75806725790808    6.41301558992938
C         7.79068704941322    9.65412084619219    1.69542363389803
C         8.13820937857398   10.93362578142112    2.19224070705632
C         8.73879879475877   11.84836472143125    1.34370322371322
H         9.00978173550681   12.83100416841979    1.69723109017725
C         8.99629590284245   11.51457316645090    0.02069029019220
H         9.46474927259851   12.24237745049083   -0.62458593687157
C         8.65793469261072   10.26591717707262   -0.46829372190004
H         8.86126743125251   10.01299511473072   -1.49794634172689
C         8.05858959440503    9.33976730163665    0.36335525989251
H         7.78861631334488    8.35877119169577    0.00371187352944
C         8.17931464486898   12.39864426590391    4.07018836854183
H         7.89237863292403   12.33105259627148    5.11837480347048
H         7.63164562664853   13.22059266006048    3.59611907752536
H         9.25519022423921   12.59240564138410    3.99902907968583
C         5.62319874148374    5.79749746120449    3.04252965515923
C         5.21546110203351    5.12772600624740    4.22213852185593
C         4.44811236092792    3.97940279106624    4.11513205045783
H         4.11133548963153    3.45986475135559    4.99853305523554
C         4.10150960558232    3.47879989470221    2.86699561654431
H         3.50424792289986    2.58137722041301    2.80676701859207
C         4.51574583139251    4.11844520044806    1.71273498673524
H         4.24671324669748    3.72143591724776    0.74549336874901
C         5.26817337119401    5.27393150175515    1.79924043059902
H         5.58844870027812    5.79797406380371    0.91174721097082
C         5.21956639119507    5.08891408935072    6.60063780102048
H         5.65078685994309    5.69792973778856    7.39303326706685
H         5.59888930397329    4.06463326931725    6.68413159303482
H         4.12927267666728    5.08742433678166    6.70504427193297
C         3.60604171373372    8.08979060715416    6.97085667575113
C         2.88143811671568    7.74083322206209    5.80503627289613
C         1.65825508843614    7.10393061482017    5.93645106699241
H         1.09407293604973    6.81359689482481    5.06403686148537
C         1.13893989355053    6.83072698062444    7.19505932534416
H         0.18257233600282    6.33596781670065    7.27418971064660
C         1.83446189507794    7.18844905127196    8.33584189843793
H         1.42308872783343    6.97733653054648    9.31140023844491
C         3.06334793447872    7.80985346507541    8.22507943205085
H         3.63070422984799    8.08336363958700    9.10148116125695
C         2.81120932845274    7.71807279770347    3.42735538219450
H         3.45169263323586    8.07156057722149    2.62140002238074
H         1.83249116345245    8.20429680550010    3.35170310537501
H         2.69111627733839    6.63305578766852    3.33780417518214
C         7.68391499887942    9.85823542968219    8.24798251798445
C         8.98195561179927   10.07976648018290    7.72732554543318
C         9.96552160154462   10.59108721799582    8.55710048675909
H        10.96315995974201   10.76521964230628    8.18509484691977
C         9.68210187928893   10.88232265404505    9.88486669222828
H        10.46334447414975   11.27926468297854   10.51547297881491
C         8.41569641521678   10.66688497510965   10.39720070393578
H         8.20231983722703   10.89585554008702   11.43042144703039
C         7.42111099333283   10.15802628292005    9.58443919410945
H         6.42533206012326    9.98527137261943    9.96280557371647
C        10.40989581430079    9.97486015405090    5.82348268817194
H        10.29637192321723    9.69112959715366    4.77837614941498
H        11.18374757882784    9.35280371433780    6.28654473899086
H        10.70724932065555   11.02747521970502    5.88485544403565

