109
CSD_code = YIZQAB | q = 0 | S = 0 | Stoichiometry = C42H63LaO3 | MND = 3
La        2.69351125573623    4.85389764818296    2.52836791111765
O         1.64070147702510    5.50384875652623    0.91671519926849
O         2.04976512503143    4.81360603374568    4.46636048968518
O         4.59638050291593    4.11242837741108    2.52728548451685
C         0.96476681429721    5.92784968562054   -0.13691972429681
C         0.42836747524027    7.24478276176474   -0.16117272052811
C        -0.27842598855613    7.65666785018916   -1.27833456698858
H        -0.70019044046879    8.64661648010074   -1.32358934486198
C        -0.46459147212456    6.82454058501307   -2.36394418178096
H        -1.01684599201817    7.17122346039595   -3.22477602919909
C         0.05859328358614    5.54724151103116   -2.34408624240812
H        -0.10217162706037    4.92277121215029   -3.20672363880921
C         0.76786347002293    5.07064436043433   -1.25461958250779
C         1.27567327367894    3.62681776053992   -1.23858636976692
C         0.50324013587478    2.85841064570214   -0.15632622521852
H        -0.56505571892849    2.90913971864706   -0.35969525947956
H         0.68130338648415    3.29340221853034    0.82840001012371
H         0.80163020378307    1.81096599537461   -0.14366118309883
C         2.78680700952887    3.56612696162795   -0.96702915025422
H         3.32076348703666    4.14216209587311   -1.72043299088465
H         3.14266738060222    2.53707139347301   -1.00975492588117
H         3.03895482295966    3.97223974404168    0.01732851752607
C         1.04145190798978    2.89655220549797   -2.56832020597879
H         1.54235156824382    3.40434592070429   -3.38874085886001
H        -0.01853380928489    2.81104683640305   -2.79361523162699
H         1.44849224159953    1.88911621662406   -2.49863638984494
C         0.67480296980810    8.21678864818468    0.99530548156241
C         0.20369790808697    7.62966881696192    2.33490824412560
H        -0.85099332338471    7.36834527636144    2.27337528818975
H         0.32811133279986    8.35746452473938    3.13628176217637
H         0.76488581079643    6.72967782348501    2.60405035764711
C        -0.06320218860390    9.55138354692942    0.82007966353454
H        -1.13733049045969    9.39939530804105    0.74920182397620
H         0.28230387888187   10.08404124102755   -0.06226577550905
H         0.13014862099365   10.18274644683769    1.68578389599921
C         2.17726094151466    8.53099861834652    1.04492878871455
H         2.39050783127638    9.26031642707900    1.82528269262688
H         2.49930592329573    8.94420933527257    0.09057928317184
H         2.75561024946093    7.62502746579551    1.23398626812166
C         1.31279670919206    5.61893338774670    5.21127094460101
C        -0.05447946638339    5.30580676439238    5.45860871967801
C        -0.82163974241919    6.19569625119539    6.18997820652692
H        -1.86333477674979    5.99415939988587    6.37542917123255
C        -0.28263882860506    7.36031805385801    6.70167990481208
H        -0.90439877890843    8.04640313200256    7.25720600173408
C         1.06029861100452    7.63089504517800    6.52633157950325
H         1.45708366796319    8.52878115617837    6.96993804725692
C         1.88390574712162    6.77975259605102    5.80732834777198
C         3.37954765392413    7.07804530344692    5.67176759835711
C         4.20785905488340    5.85707921996460    6.09656134576543
H         3.97761881020419    5.59465839129250    7.12698435891048
H         5.27137412624039    6.07916010399805    6.02391075226827
H         3.99028234495866    4.99583410734104    5.46795842269376
C         3.70755891964461    7.45757968747326    4.21825627148751
H         4.76258944105640    7.71724316913507    4.12490999130052
H         3.10604361131822    8.31338467104064    3.91243626869276
H         3.50274211298681    6.60957837216941    3.53424417171512
C         3.83024696886714    8.25438605509058    6.55013588353017
H         3.59180339302403    8.07189872084968    7.59458981863181
H         3.37071931057062    9.18884508737774    6.23706450203292
H         4.90933054465932    8.37014197378212    6.46691896551430
C        -0.65218668657885    3.99761803937960    4.94054100250105
C        -0.69196312988539    4.01331793629742    3.40507242172102
H         0.31357805196808    4.16684194848785    2.99053656076061
H        -1.33380157422767    4.81917077862181    3.05299132074482
H        -1.08204315536168    3.06901367058396    3.02594199237898
C         0.18909908240808    2.81236590420109    5.43869029927905
H         1.22470299047231    2.90669755419590    5.12053421815420
H        -0.21527418510037    1.87649707251361    5.05531005539919
H         0.16870222716171    2.77790718249449    6.52606713876032
C        -2.08948007192121    3.76590638583814    5.42435017198054
H        -2.13996395098781    3.75459761117905    6.51021315845299
H        -2.43627235588218    2.79991302431503    5.06148182132787
H        -2.76613870077517    4.52664394999065    5.04280727104426
C         5.28059480530468    3.33294423324187    1.70833064710247
C         6.22586691470454    3.90326550179573    0.80840447159232
C         6.88308243209062    3.07404787698761   -0.08368928278438
H         7.58777721834784    3.48074605773036   -0.78945741640872
C         6.65962922677051    1.71076946225548   -0.09887028686576
H         7.17332350185186    1.08570788127288   -0.81392934033708
C         5.79964273585212    1.14522500350824    0.82197749409998
H         5.67629222582641    0.07517681855717    0.80762118752919
C         5.11297107271787    1.91883388402083    1.74384504618615
C         4.20308922597852    1.26032444238465    2.78450613251958
C         2.73341393636724    1.59100512339685    2.47643791629351
H         2.07618173818026    1.08739701831910    3.18611600407125
H         2.48153052484505    1.26159337318200    1.46859624508371
H         2.55060474564171    2.68151777754101    2.55548785031681
C         4.56674642763808    1.74368177669889    4.19566588309775
H         3.93778950093284    1.25205364086853    4.93622928287579
H         4.43517823182439    2.81989210910167    4.28944182975774
H         5.60652920735830    1.50675546029047    4.41102049656298
C         4.32179752532980   -0.27082703807236    2.78993077027799
H         3.71121387633174   -0.67420471315537    3.59567838958946
H         5.34973246440303   -0.57930065923322    2.96082757803272
H         3.96933689305196   -0.70459115737195    1.85721289382080
C         6.51932721069785    5.40311432390519    0.84607766445017
C         5.27598793969301    6.19009939667151    0.40519598902659
H         5.01141807485338    5.93378790005691   -0.61929550248588
H         5.46768828758020    7.26166847256052    0.45560161606116
H         4.41869557921966    5.95898644209662    1.05200167385129
C         6.93130704580632    5.81388593978026    2.26813077492276
H         7.84383115779709    5.29351470878604    2.55177552362734
H         6.15695003389137    5.56042314987999    2.98839062270050
H         7.11702814224807    6.88626443003190    2.31091295166788
C         7.66399370370034    5.80988178784628   -0.09092272070612
H         7.41167996322202    5.62500776950611   -1.13224136281620
H         8.57927142406026    5.27742001120861    0.15517160052018
H         7.85464979234744    6.87578017214806    0.02108010596594

