61
CSD_code = YIZQII | q = 0 | S = 0 | Stoichiometry = C22H28I2N2O6Zn | MND = 4
I         9.26324516799989    3.28817206926028   -0.04775676256672
I        12.40649584223586    4.35122698148463    3.17099263495457
Zn       10.68101587501114    2.90092864788911    2.01635396087893
O         7.97169473034468    7.01892349212796    2.66533334401273
O         5.47925821395316    6.93300620348771    2.32507195986669
O         3.98462226732592    4.51635867563572    2.71610859373324
O        17.41682585771246    1.31196324412842    0.92023474048868
O        16.67681947263680    3.49624212034850   -0.78893963678389
O        14.26904371918242    4.07378669241839   -1.23166338096794
N         9.40073842948678    2.03979865692665    3.47532155219608
N        11.49944636251232    0.93730991691368    1.93907994926428
C         9.37805933865782    7.12950340819638    2.65852298605141
H         9.58845623332234    8.16821797572931    2.41224278358649
H         9.82402085611363    6.48484731471777    1.89564351241779
H         9.81397440882346    6.89792590267399    3.63482181851677
C         4.16052788114609    7.04217628715070    1.83649415531847
H         4.06518408393511    8.08035077936211    1.51935526075370
H         3.42124399920827    6.82617875148154    2.61010328574161
H         3.99413412570166    6.38383475614840    0.98159783971523
C         3.30410565006418    3.28741750017431    2.78583932969463
H         2.26517941348749    3.52022683988425    2.55709033358517
H         3.36073080118585    2.84935258537221    3.78777592509000
H         3.68483248851162    2.57362830254705    2.04890153076363
C         6.06955347435553    3.40105626701963    3.23183076661327
H         5.56739866723475    2.45871024910509    3.37927111903548
C         5.34623472563986    4.52614316574172    2.87032191729241
C         6.01870679772589    5.74560447652800    2.66417379683624
C         7.42328089514101    5.79840049562263    2.85549635359530
C         8.12515859714128    4.66176159952147    3.20201021409384
H         9.18480827310481    4.71180317360056    3.38884568185662
C         7.45713537726150    3.44639226141343    3.37741680308847
C         8.15710499718521    2.23322978246049    3.69280359682311
H         7.55609716103877    1.42915481881633    4.13303268576978
C         9.99579432227043    0.78894734835058    3.85015528493900
H         9.27689928238893    0.12528003558239    4.35058031936995
H        10.82096581675012    1.00300639161264    4.53880122045440
C        10.56152543965484    0.08354388839342    2.61121312670528
H        11.01635638168722   -0.87105881348823    2.91069132457979
H         9.73689281681278   -0.11907274965137    1.91800497219518
C        12.70079965986369    0.53553326626888    1.77276154540573
H        13.00103425466124   -0.43753865831811    2.17865737639994
C        13.72647282994253    1.27545010268261    1.09439956413304
C        13.43173328524426    2.32977031720095    0.22523151139629
H        12.40326371126544    2.55018567015381   -0.00552726027011
C        14.44816606569094    3.04054271279775   -0.37935986914716
C        15.80486021720164    2.71165258057559   -0.12626738140734
C        16.09760097932186    1.62963566697683    0.72560047728212
C        15.06032008594057    0.92631073867761    1.31592748337770
H        15.27290764443820    0.10534733170163    1.98130905127162
C        17.74123504524739    0.29843792616734    1.83957068812279
H        18.82956566033312    0.26968594788349    1.86383968699335
H        17.36393647770550   -0.67730188353191    1.51622704664246
H        17.36405398341242    0.52627633299931    2.84131706585910
C        18.05995577640809    3.48018052039319   -0.51388796333884
H        18.47242287954919    4.29386100462004   -1.10998396809749
H        18.52248060034028    2.53732628405914   -0.81192896188841
H        18.26150992983454    3.66484009778415    0.54303403983074
C        12.96380090770312    4.57980959390355   -1.40830071442988
H        13.07129035981391    5.44389914271159   -2.06073120931070
H        12.53108446761027    4.90297529393606   -0.45704322859883
H        12.30143693451018    3.85154051573010   -1.88551987977105

