31
CSD_code = YIZRAD | q = 0 | S = 0 | Stoichiometry = C12H15ClO2Ru | MND = 9
Ru        4.46414581731229    3.65797321786252    2.54766855630269
Cl        5.61215512998015    3.43536078931108    4.56075081846380
O         5.85402464011481    2.29067428064365    1.86255211960814
O         5.82550401937404    5.17273619095703    2.19719064008964
C         2.92507182877648    3.93468053698577    0.86921582835385
H         3.03565382611428    4.15931073851569   -0.18455141356259
C         2.77730921243827    4.98819605314589    1.80173377288913
H         2.78261735250955    6.01393005543771    1.44899753240687
C         2.52774613441780    4.71959545200524    3.15860457246964
H         2.33788163559515    5.52596125012769    3.85624166113194
C         2.49688286644212    3.37284498211878    3.59433159363759
H         2.28811620556009    3.15130764213332    4.63581522081561
C         2.62546458030894    2.31647687848046    2.67048313101408
H         2.50767947609026    1.28979145185309    2.99801005602336
C         2.85538427389324    2.59277391983653    1.29828520286699
C         2.96232705117283    1.45980955896311    0.32307146843587
H         2.05354044178284    0.85835810017781    0.34620558292537
H         3.79945898086056    0.81719288828722    0.59456749516193
H         3.11959491358051    1.82556577687809   -0.68879239888164
C         7.96217271959657    1.33509660026979    1.43221332578835
H         7.34165952664696    0.45434475322637    1.29195630987706
H         8.64492161186567    1.16233274552801    2.26074807280979
H         8.54625406071007    1.52292828724260    0.53482681022856
C         7.08869280725739    2.52743292245089    1.75755387284023
C         7.71742110295923    3.76905654471975    1.86993096775356
H         8.79058195939078    3.79144790216044    1.76601831604451
C         7.06319033893458    4.99214823675695    2.04616040192184
C         7.91246202599895    6.24391150356230    2.02099528473386
H         7.27108873003242    7.11882941473930    1.96208833404758
H         8.60199396175257    6.22817948340359    1.18185840068098
H         8.48730276853056    6.28975184221942    2.94346846312048

