76
CSD_code = YIZRII | q = 0 | S = 0 | Stoichiometry = C30H40ClMnN2O2 | MND = 5
Mn       -9.40933222702278   -6.16740109522222   -1.49836130849457
Cl       -9.71084300302404   -8.26617716019687   -0.86892166768057
O        -8.75278700949876   -6.26060202827866   -3.12525723151624
O       -11.15701778492485   -5.91873936241921   -1.79996995945995
N        -7.46129504011289   -6.24651840171178   -0.91622720326300
N        -9.59623730179819   -5.49311822471518    0.25241635140748
C        -7.22460382503472   -5.76437223329157    0.43959228633909
C        -6.10363560650884   -6.43774646043680    1.23386578660539
C        -6.04279848416690   -5.84466502039149    2.64034544803340
C        -7.37931260966000   -5.98289963872761    3.35906866597933
C        -8.49754050914889   -5.30865451126866    2.56682911355152
C        -8.56324814790175   -5.93938731744448    1.17762178639142
C        -6.48098618968640   -6.70456011844292   -1.61746375073167
C        -6.57590657730554   -7.11726063825810   -2.98220900461089
C        -5.47017953573147   -7.71540683985837   -3.59882793779233
C        -5.52898561016580   -8.11656229852361   -4.91129655649932
C        -6.71660946736574   -7.90462749902580   -5.62034920650420
C        -7.82955186913133   -7.29871039354041   -5.07642988420003
C        -7.77028820466841   -6.88377096130570   -3.71793154662804
C       -10.56849371206805   -4.72839097391158    0.66620451632501
C       -11.74672343190474   -4.43663249484125   -0.06560088512724
C       -12.70386683486969   -3.57371337127302    0.50159689539472
C       -13.89563409328340   -3.33186227660177   -0.12337018327569
C       -14.16387812663327   -3.99257914723334   -1.33489984576762
C       -13.28827618757816   -4.86409024271634   -1.93301212407335
C       -12.01820061811758   -5.09138664805567   -1.30973481857718
C        -4.36863719387709   -8.77839504322769   -5.59062800050355
C        -9.11260394697532   -7.09831543097451   -5.86826413334706
C        -9.02198797243141   -7.64337780513657   -7.29747512481140
C       -10.24904329458294   -7.84284170000028   -5.15425136145674
C        -9.40585457534236   -5.59422714065577   -5.95926434049427
C       -14.92150588308059   -2.40085106468173    0.44882970012582
C       -13.61711264076925   -5.57099618036812   -3.23969587096225
C       -13.55157375645346   -7.08983444653713   -3.02465769670185
C       -15.01630239920185   -5.23094225406577   -3.76390769246908
C       -12.59731559835311   -5.13633287499239   -4.29885045174650
H        -7.01184956314823   -4.68481510604338    0.36709500536169
H        -5.13660783740101   -6.28041305567055    0.75356234732858
H        -6.29953780628327   -7.51042914885929    1.28040395023481
H        -5.77468094651196   -4.78720192857298    2.57348616616042
H        -5.26231670216138   -6.35002560916968    3.21142456190657
H        -7.31270578086325   -5.53429176404767    4.35183129649757
H        -7.61725986829055   -7.04083305648468    3.48235632497563
H        -8.30067328824840   -4.23617079443568    2.48751321310724
H        -9.44185677146435   -5.45677219645500    3.09305332453991
H        -8.73192224486897   -7.02355768243383    1.29215315866524
H        -5.48344960746604   -6.77122890663514   -1.18578021153229
H        -4.57212683233129   -7.87204556768043   -3.01779677283194
H        -6.74132270733189   -8.24105193936739   -6.64422536163714
H       -10.52781512705761   -4.30625846465593    1.66703032029050
H       -12.47357124205579   -3.09844002862709    1.44541347886868
H       -15.11932287921511   -3.79469114443114   -1.79323249925441
H        -4.07971606358065   -8.22234556700783   -6.48163039611188
H        -3.51197310358295   -8.83945262762962   -4.92472858481938
H        -4.63875317280202   -9.78704528454170   -5.90094906680374
H        -8.24536294062564   -7.13749044579692   -7.86716309167888
H        -8.83031178533014   -8.71371123973465   -7.29924169006085
H        -9.97092637493500   -7.47266856627603   -7.80183992549924
H       -10.37399425004659   -7.49583929215236   -4.13133704323200
H       -11.18686998718821   -7.69628828069699   -5.68498104246881
H       -10.03107318842986   -8.90845730827692   -5.12044843037498
H        -9.48815730688100   -5.15188609598239   -4.97032196336698
H       -10.33897103210975   -5.42272896239979   -6.49096815922983
H        -8.60294513479450   -5.08913822212810   -6.49454754935985
H       -14.58299030621746   -1.98294712320477    1.39344310042547
H       -15.85993001233924   -2.92769448162824    0.61772118986831
H       -15.11979954437735   -1.58224536557716   -0.24250250686333
H       -13.75728866463695   -7.60848561037406   -3.95870016436885
H       -14.29248636387238   -7.39461403490041   -2.28811413913497
H       -12.57230748772953   -7.39810895731461   -2.66986597259593
H       -15.11225928837105   -4.16921703364910   -3.98140390493110
H       -15.78547329506301   -5.52317716678056   -3.05275771093918
H       -15.19047736000099   -5.77831710697816   -4.68819305221594
H       -11.59267766515806   -5.40309432108748   -3.98762637764406
H       -12.64300001234396   -4.05833235399393   -4.44895871060820
H       -12.80746718650073   -5.62753886000484   -5.24638587412615

