45
CSD_code = YIZXOX | q = 0 | S = 0 | Stoichiometry = C16H25ClN2Ni | MND = 7
Ni        4.00884952929450    3.09531057124736   15.80444985675821
Cl        5.22308396831423    2.40891047623847   17.35872040388340
N         5.09366290763851    5.72726810319027   16.36459488559697
N         3.34064670516061    5.30169963667259   17.56080443608283
C         2.93303852129195    3.40192764396211   14.08248565164221
C         2.10061655676474    2.55735442285797   14.89558834765554
C         2.80683321221922    1.38945892472363   15.13485470319208
C         4.05717727564834    1.46897339984222   14.42150903772771
C         4.08117731323283    2.66171039647258   13.69503886914450
C         4.11709863464653    4.82144999956653   16.56903058481400
C         4.92507458980528    6.79264102902218   17.22030599105669
C         3.81486596469806    6.52818737220062   17.96882232348382
C         6.18130353482087    5.45489843181883   15.43442790043761
C         6.37482042860856    6.57310084892524   14.41599099305132
C         7.46087397796799    5.09838604672039   16.18668316769003
C         5.79108074252841    8.00217836147981   17.26668048192548
C         3.21658795289048    7.37145534132386   19.03996248913948
C         2.22670226628745    4.52009753896552   18.08056736164383
C         2.34997900517225    4.27965954974846   19.58049733887797
C         0.88175355076165    5.11908419029669   17.67665597038653
H         2.60585360932736    4.32640555805941   13.62719338018702
H         1.08784558731388    2.77834021193215   15.19300447503802
H         2.45644196310901    0.51771495656523   15.66530074718257
H         4.75946865298241    0.65369675893445   14.33031965421692
H         4.80955562158629    2.95514450415761   12.95563326427079
H         5.85265521495165    4.54321521234083   14.90011074645120
H         5.41439387332281    6.89145990307146   14.01680347514929
H         6.98196783329777    6.20496929818472   13.59324035653239
H         6.88057157541273    7.43033766063223   14.84986539302388
H         7.25529362825835    4.27858604594039   16.87179967639893
H         8.21824745655728    4.77665847135940   15.47737989419040
H         7.85209023984100    5.94147601462149   16.74924957906395
H         5.58478806930788    8.66239330998358   16.42409701383797
H         6.84360504777717    7.73497348851980   17.24709371446919
H         5.60067444431706    8.54992154103932   18.18515763243233
H         2.13283289985837    7.31489482629940   19.03062170957427
H         3.50088249803387    8.40959963896675   18.89007523923758
H         3.57256705458795    7.05867741117225   20.02152909766495
H         2.33317913853191    3.53934566799473   17.57680953961388
H         3.35370999794389    3.93095265689159   19.81028008547167
H         1.64494066385052    3.50742858002350   19.87588596118362
H         2.13660795714845    5.17474817289381   20.15666207005368
H         0.08842595789405    4.41523756683923   17.91331935337964
H         0.67626550878012    6.04894391189995   18.20048586376567
H         0.86710886825623    5.31122634640091   16.60621128341995

