61
CSD_code = YIZYEM | q = 0 | S = 0 | Stoichiometry = C20H26B10Cl2N2Zn | MND = 4
Zn       10.97466213231788    4.55783669379384    3.40103404393098
Cl        9.58802540110498    4.09548334865382    5.02542424552760
Cl       13.18145248568505    4.46805042728347    3.25130948930234
C         9.32758487390797    1.32026440902369   -0.76361836434356
N        10.27506891884501    4.12045799976545    1.47281538934200
C        10.68212443857529    6.46531240864677    1.24801269569150
N        10.72020492720657    6.50696079271776    2.58250132604717
C        10.33330244212288    5.16929136835245    0.64339394552982
C         9.67315279811514    2.69128051020874   -0.34920745548601
C         8.65296741915897   -1.29151543421928   -1.51123186486827
C         9.95363040679256    2.93296051341565    0.98991799747473
H         9.92384573477999    2.12220916092744    1.70538597514953
C        10.05448048163198    5.01786734844400   -0.70807709708453
H        10.07572117183828    5.86663924524135   -1.37121896382908
C         9.34483252740801    3.65652297255221   -2.67162201846830
H         9.57074031026459    2.65400913136384   -3.02820330465830
H         9.94584752718889    4.35806493100050   -3.25149620436000
C         7.87077451109666   -0.58615785808754   -0.60312279256247
H         6.99074457906206   -1.05332454593320   -0.18603528813371
B         7.22861541591673    5.17524747448654   -4.11222550777142
H         7.91628856932873    5.90862525421750   -4.71936930777369
C         9.71838186541458    3.77472708389492   -1.23983203801708
C         9.78655948996871   -0.67631744750378   -2.02530874756203
H        10.41808752408746   -1.21392721274674   -2.71789657813948
C        11.01181189616211    7.63755496152748    3.20225700782643
H        11.02117032070394    7.59410389638455    4.28280573773821
C        11.28948774980350    8.81305835680065    2.52424939163981
H        11.52323570824566    9.71490391441628    3.06627946256092
C         8.20498134816866    0.69919472847209   -0.22599871372114
H         7.58575363545679    1.23712763194465    0.47495653109665
B         7.75255100512762    3.96203543210849   -2.91667733875710
C        10.96204814380503    7.60406424189666    0.49195089305515
H        10.95729868606857    7.56710894649595   -0.58462945208147
C        11.27096640854343    8.78717215418006    1.13867839325542
H        11.49719698594464    9.67582227049427    0.56822289122249
B         6.93958507669527    5.45042601258960   -2.38525439967454
H         7.43629454929820    6.37857777849839   -1.86155140022670
C        10.12239999432645    0.61413370870356   -1.65943800334498
H        11.02217789405355    1.06650615793889   -2.05059596268830
B         4.49750606429448    4.55557679256860   -3.53070633334490
H         3.39338485990292    4.77909842852245   -3.85294810008990
C         5.71700488421505    5.73058433303005   -3.54158840381768
H         5.43791421509594    6.75322894179617   -3.75803040180090
C         8.28253465187800   -2.68920419716754   -1.90168029244783
H         8.88695462568421   -3.03556351349575   -2.73597473137939
H         7.23185897189115   -2.74291743563726   -2.18107565722935
H         8.43709774804781   -3.36550853800616   -1.06126168133851
C         5.34178734317569    3.17083248064938   -4.01644268142780
H         4.80238701397748    2.41103521796266   -4.56596948425446
B         5.72079880709025    4.61560109252437   -4.81716120114556
H         5.33674906644870    4.87316847259101   -5.89379472252002
B         6.52952594615452    2.67242968199308   -2.89969665481972
H         6.73383866910542    1.52303414092046   -2.77056238742639
B         5.24667565524509    5.07638275833169   -2.02843615677009
H         4.63940273017725    5.75301187007409   -1.28657040278062
B         4.99287977384802    3.35214040781743   -2.34801437981785
H         4.18125506396669    2.65857413209712   -1.86128128104587
B         6.51601909708045    3.90288482651929   -1.61688181374834
H         6.79809648802149    3.66489985662071   -0.50133179665318
B         6.97609301304673    3.44898999133377   -4.43314195864455
H         7.46387995743790    2.81566149100344   -5.29253409033376

