56
CSD_code = YIZZUD | q = 0 | S = 0 | Stoichiometry = C22H28N4SiZn | MND = 4
Zn        4.06862265850193   12.50422805715441    9.19293198926784
Si        4.29486589990077    9.78007418941602   10.86213458111062
N         4.28895356210513   12.31953536034384    7.15806723107592
N         3.81597933981885   10.49283783270306    9.35465994861860
N         5.68745783346530   14.10293412590643    7.44680086615577
N         5.89612246019258   13.66183689975842    8.70252712860299
C         5.00990044816185   13.25819621609024    6.55268515565077
C         5.11612226018135   13.36258863035348    5.17924279863743
H         5.75974864551955   14.07597713818188    4.70064201988803
C         4.36429256080845   12.46213043415771    4.41058091442047
H         4.39391515066841   12.53790322775726    3.33333341232229
C         3.62646090343025   11.49045415364899    5.02211817281374
H         3.05475333353906   10.77877137541060    4.44763211366501
C         3.63693384505696   11.37869478468398    6.44028026455668
C         3.02291949590305   10.28927059975092    7.07540261268133
H         2.44846238333468    9.63965321270427    6.42882105922532
C         3.14419340415039    9.87513897249876    8.39558454433325
C         2.46225317556134    8.58942806471134    8.69628442220551
C         2.84441611773586    7.41245320296927    8.06318129028603
H         3.65537895706579    7.43389926895590    7.34950227635070
C         2.20674483774397    6.22113297965225    8.35842318655893
H         2.51901984988545    5.30774660095882    7.87251191214862
C         1.16739921438469    6.19701067698129    9.27365595986855
H         0.66854092244125    5.26631401434776    9.50227541549981
C         0.76547056916225    7.37060096555920    9.88913380657071
H        -0.05459911835844    7.35742226738304   10.59294073360431
C         1.41088082500662    8.56026404792597    9.60405852908052
H         1.09585560374128    9.48110820151259   10.07056689483335
C         6.19961655915845   15.35139736912900    7.28373948597738
C         6.77163428186274   15.69706697965674    8.48903174374773
H         7.26918205807242   16.61663644767991    8.72132411199472
C         6.55714085141366   14.60830625694393    9.34628400403045
C         6.08272886657041   16.19370559638195    6.06593447358853
H         6.23680967417237   17.23356403155577    6.34485675598154
H         5.09778869237991   16.09177065220498    5.61449648594787
H         6.83902260406994   15.93141413245036    5.32576996157790
C         6.95720227224928   14.47057633063278   10.76888860276098
H         6.07927814261234   14.55957793142644   11.40755592559751
H         7.66835840339384   15.24731001816820   11.03675618496396
H         7.40030991072737   13.49339222086237   10.94340434008916
C         5.79067321022026   10.85272942540163   11.36123443659816
H         6.54323991223484   10.87056480693672   10.57926122831467
H         6.26148396635127   10.48816963752250   12.26828958298296
H         5.47204725661583   11.87568326300539   11.54170726580664
C         2.98756739341024    9.93522043156286   12.25241912053438
H         2.42206487842978   10.85728181476257   12.15678899488543
H         3.46698708087346    9.94468000275882   13.22634863148530
H         2.28491482486390    9.10837110537888   12.24170431569405
C         4.85788168886466    7.96110500611339   10.73068637877890
H         4.01273561823959    7.28135858341308   10.72740115620407
H         5.49170087003019    7.69593531624997   11.57065772208037
H         5.42387000375928    7.78683946362262    9.82155501642672
C         2.93039700884589   13.85397879256240   10.15826268122459
H         1.88525312208465   13.78569861878672    9.86534370881428
H         3.24154393914655   14.87535069104663    9.94893291789207
H         2.95030177023868   13.74300957230525   11.23898552598660

