68
CSD_code = YOBBAT | q = 0 | S = 0 | Stoichiometry = C31H31N4PZn | MND = 4
Zn        8.29840081929575    4.17011284187724    8.73393155059333
P         9.21706407968471    4.35169236649373   11.65097546475470
N        10.10098770706827    3.19693209083675    8.91028782188079
N        10.50798709356098    3.90578987544873    6.78675064578165
N         9.43659288294336    4.71040701549401    6.89398043154144
N         8.57592074270977    5.22959716677017   10.46176652778181
C         8.13461758161431    4.13614039110100   13.09972343279431
C         6.81583791229628    4.56578886721216   13.02414488153277
H         6.47949883484430    5.07742868064524   12.13329329499127
C         5.95109800664498    4.34051347880438   14.07978052300120
H         4.92699074266291    4.67869983981320   14.01942657909751
C         6.39911920614062    3.68022105853558   15.21222916970397
H         5.72516752901670    3.50516403049833   16.03811155223300
C         7.71063211259931    3.23818171031294   15.28599066807931
H         8.05628806184194    2.71664352054357   16.16718556046208
C         8.57750368004879    3.46028093663999   14.23146680417065
H         9.60019336785378    3.11130687868436   14.28159637118162
C        10.74390784196250    5.17862055056074   12.25036334322853
C        10.98176259629912    5.62274368035831   13.54411272293303
H        10.21849445269891    5.52047063388529   14.30384098477440
C        12.19493055301827    6.21042233655458   13.85792471696881
H        12.37700698536118    6.55817369624235   14.86479877911219
C        13.17208979740932    6.35752160901368   12.88788466504349
H        14.11612637832404    6.81871549547895   13.13885942287644
C        12.93796509275345    5.91509408127433   11.59489043610033
H        13.69946730843598    6.03192377895020   10.83704666986275
C        11.72970325924348    5.32536131772825   11.27963243402700
H        11.52498043174722    4.97187398246508   10.27719857279063
C         9.59225911416407    2.71485917431668   11.16855450498341
H         9.65431376892996    2.03157434756188   12.00607455191236
C        10.18422400578529    2.34897855346611    9.97022612872350
C        10.84045030104382    1.09471102992653    9.78252943471396
H        10.87928628751444    0.40113478969946   10.60804096127449
C        11.40451708253214    0.79560663240769    8.57949665459059
H        11.89764340929580   -0.15330042783083    8.42466558027630
C        11.35769392415079    1.71890570161077    7.51880893497365
H        11.77426913787633    1.47070872826160    6.56059256939499
C        10.68568634360439    2.89868745623035    7.75584026418340
C        11.27272419877391    4.26161118136011    5.72558467930097
C        10.63663289502957    5.33003381943286    5.12689530647458
H        10.96196899268257    5.86488256719998    4.25792878418155
C         9.48743812789745    5.57219533133145    5.89147636302453
C        12.56689459558591    3.63894883287334    5.34813324301333
H        13.14320209458585    3.37338409915968    6.23227036674060
H        13.13796347073151    4.34481075567369    4.74940735059695
H        12.41198819736269    2.74060758385910    4.75014911169462
C         8.44687286718960    6.61077667560864    5.68272594549042
H         8.71381225916322    7.52192042314485    6.21871839911997
H         7.48919111730373    6.25706465879787    6.05859498388770
H         8.35879862952324    6.84749807209817    4.62472318067883
C         8.29125414788509    6.57705078723653   10.59599396810044
C         8.37265976472788    7.27951359734674   11.80066012306711
H         8.67420609417023    6.75581366672518   12.69822447212616
C         8.05784566749439    8.62249009509994   11.85827317034010
H         8.12903518552884    9.14381898052208   12.80262361773127
C         7.64892800426277    9.30056027288484   10.72235417157334
H         7.40251836964267   10.35058563342523   10.77186734877919
C         7.55388795353626    8.61339779373859    9.52240569796673
H         7.22835763661020    9.12865673081725    8.62932605256124
C         7.87100420737116    7.27265137825658    9.45955057440680
H         7.79542454583703    6.72579189602227    8.52661188084280
C         6.58808645088669    3.15080160085605    8.42790874709344
H         5.99696035312925    3.53178449606008    7.59295076429474
H         6.84210074306121    2.12189607028953    8.15835023579604
C         5.67970529841746    3.09744236690557    9.65988082754749
H         4.81340814591326    2.45773545005949    9.47379475994724
H         5.31281886724397    4.08940698677928    9.91605956176281
H         6.21203268547922    2.70048029856354   10.52273269953299

