81
CSD_code = YOBCUO | q = 0 | S = 0 | Stoichiometry = C32H41BrN2NiO3S | MND = 4
Ni        5.40927636071489    2.66867210949465    4.64839797364788
Br        4.09365659646136    4.42927842457464    4.74973577672031
S         5.87481365652151    1.16786726402283    2.74922149947513
N         5.88223609604408    2.59304011958196    6.45087748994304
N         6.09654788144759    0.95977295987373    4.33692828992983
O         5.14540592993669    2.43362936986310    2.71859592269221
O         7.10498794646844    1.15070116070953    2.01082618694620
O         7.40683561999148    3.79555711132076    4.02407126284804
C         5.29991765764537    3.45077725326251    7.44070807606377
C         5.95206004716151    4.62689084441559    7.81726606791957
C         5.42666724992700    5.36335138636273    8.86932369838089
H         5.92413724132830    6.26684720250190    9.18430547512379
C         4.27785835386836    4.95766186613133    9.51894875245519
H         3.88810240454950    5.53818480909336   10.34140634404918
C         3.61619005368438    3.81992863324001    9.10084042521716
H         2.70533021074940    3.52171263872967    9.59530670571575
C         4.11060330759208    3.05247617903548    8.05701878278613
C         7.17713497227506    5.10824747864390    7.07855244781158
H         7.30775521893312    4.47906814334512    6.19361968787182
C         6.97453968664727    6.54526690610636    6.59376677792703
H         6.03787563591331    6.61570726703495    6.04613975958108
H         7.79327321977573    6.83478908253243    5.93848072311267
H         6.94437430686730    7.24360842588641    7.42574351018201
C         8.42823809836628    4.99131651779041    7.95196728578984
H         8.31732490490400    5.57654973684988    8.86213515290928
H         9.29897367124509    5.35839274376548    7.41259454105507
H         8.61010085936096    3.95508487832932    8.23174832342213
C         3.36551972151844    1.82594866705060    7.58644445814779
H         3.86864344099419    1.44375826537197    6.68676795178538
C         1.93218768839182    2.18716116330094    7.19472488490731
H         1.36264029083871    2.51946944868418    8.05767262453578
H         1.43148572709893    1.31958336936961    6.77055569065590
H         1.94492628865898    2.98739566146661    6.45913315723787
C         3.39634300384977    0.72648686159643    8.64935807128860
H         4.42205387788284    0.45107095512285    8.88770854747769
H         2.87649105787251   -0.15955173919211    8.29122516927344
H         2.91168798040084    1.06335211627105    9.56222966711377
C         6.75267454113971    1.76175024196265    6.93083613646517
H         6.98395210575926    1.86202587343523    7.99367732818201
C         7.44418900363597    0.70724798621857    6.26709830918240
C         8.46239250039167    0.01411506942853    6.93878370142339
H         8.70739598870391    0.30663719194012    7.95010734319907
C         9.15044064101452   -1.00373200508314    6.32676350585916
H         9.94029092660893   -1.52129452077079    6.84855533250582
C         8.82061507630724   -1.37277168297840    5.02047509451955
H         9.36053920580627   -2.17628680967081    4.54087231102809
C         7.81348203504891   -0.73427820792178    4.34151451943396
H         7.54872673385597   -1.01835943209030    3.33481624980697
C         7.10807579549405    0.32489243128663    4.93861457310373
C         4.74053341857335   -0.11549792729013    2.18807669825902
C         3.46553141023918   -0.15688371050755    2.76340318629176
C         2.60008573083344   -1.17705467644510    2.38962114475004
H         1.61431592463549   -1.21477292761277    2.83034365603079
C         2.96063923060504   -2.14145192931244    1.46042460850130
C         4.21601125536576   -2.05555346965885    0.88297856114859
H         4.50690184307564   -2.78351818168541    0.13936007143412
C         5.11704220224974   -1.05194852219820    1.22440185744776
C         2.95681916105388    0.86752801308997    3.72808664774847
H         3.65052026036189    1.02493033151984    4.56296867595694
H         1.99785730477652    0.55880612672384    4.13880821187336
H         2.81689847211404    1.82509609199078    3.22267234486660
C         2.00405682741178   -3.23197457726677    1.09167419908905
H         2.40683989587870   -3.85297918452029    0.29610212213142
H         1.05697002786250   -2.80877051132943    0.76145788378272
H         1.80197389442022   -3.86252536379038    1.95676916082191
C         6.42995119868001   -1.01977298847030    0.50556767404657
H         6.58681978627778   -0.05168927567377    0.03560144576312
H         6.45685619927613   -1.79517557198645   -0.25736964068037
H         7.26529147724755   -1.17398025433409    1.18579742443627
C         8.71627952897609    3.26545742931442    3.85295227889010
H         8.67184199763368    2.17330989085118    3.85493134148050
H         9.33879563279003    3.59831415622440    4.69770421557968
C         9.23132022759703    3.82005330978861    2.52981362053468
H         8.86829828696463    3.19331881485334    1.71427198937941
H        10.31759964780025    3.86683927487676    2.49574344082175
C         8.55612333316354    5.18818543889100    2.49253911985876
H         9.09389247087078    5.89424233517238    3.12780043708403
H         8.47762380852608    5.60176258837134    1.49036365424850
C         7.19103089606313    4.86320880845973    3.08682708824272
H         6.73314769986886    5.69461787243791    3.62909520315415
H         6.49716012915983    4.51567717222465    2.31215011031696

