37
CSD_code = YOBCIB | q = 0 | S = 0 | Stoichiometry = C17H14B2O3Ru | MND = 9
Ru        1.56832855091024    2.03446547955507    1.65420137032030
O        -0.56527258125622    1.68686317052360   -0.45472043051155
O         3.23652541203075   -0.22963068198421    0.63519963837779
O         3.68116168267158    4.12379153076080    1.10939362022631
B        -0.46048448282694    1.47349590161460    2.96233260590802
C         0.75225139555252    0.72072988590983    3.61132413901770
C         1.92769736909930    1.43524059085019    4.04122048526916
B         2.04240615075509    2.99098076775727    3.87812360593995
C         0.84348985932776    3.74343414077498    3.18804839067394
C        -0.34323738545042    3.03235366025673    2.77617001766801
C        -1.41416442303920    3.79285323230472    2.23987211319441
C        -1.35747942137274    5.15415604525483    2.10794919880525
C        -0.20313794705392    5.84241242483479    2.49384931219016
C         0.86002032217664    5.15202238986749    3.01011099174291
C         0.70589061970588   -0.67325844427640    3.84980857580865
C         1.71839401956849   -1.34485276047395    4.48437432550583
C         2.85673524112138   -0.65200567187841    4.90175200076698
C         2.95525806826677    0.69597704491969    4.67389156753679
C        -1.83798010801225    0.71642517602941    2.69547706490479
H        -2.46121555390606    1.18658182856975    1.93900305433851
H        -2.42455702307377    0.69600162173874    3.61438847418861
H        -1.70704778530176   -0.31787781834369    2.38719413938284
C         3.23710075377127    3.77594900509087    4.58498120449966
H         3.08625396517159    3.77340227373018    5.66480579767704
H         3.33028532608521    4.81630101149313    4.28536788733897
H         4.20618622417038    3.31395849406561    4.40751904761026
C         0.20444896727313    1.73803237095853    0.39450349575229
C         2.60052720073520    0.65837025332358    0.98349305005677
C         2.93186458083571    3.30684844740638    1.40462811671037
H        -2.31831516255442    3.27866737945572    1.94680325223020
H        -2.20222807853283    5.70020215972204    1.71402564796348
H        -0.15903460834522    6.91707037815843    2.39308601866678
H         1.73704726632323    5.70357589632629    3.31834183384845
H        -0.17002921962397   -1.22406815733767    3.54001343441545
H         1.63770621794152   -2.40652607381449    4.66743508599434
H         3.65343281273657   -1.18003861736401    5.40534285513676
H         3.83977177411953    1.21899566421942    5.00668901084398

