51
CSD_code = YOBDAU | q = 0 | S = 0 | Stoichiometry = C22H26B2Ni | MND = 10
Ni       -4.11756285902912    3.42635359513257   15.56861080360081
B        -1.89932125397057    3.65955065447491   16.70419419339153
C        -2.79623934968060    2.49477543130534   17.24518964459163
C        -3.20256021132935    1.43566509910904   16.36946959506872
B        -2.75707810154397    1.44979554162406   14.86822116226001
C        -2.27912836303668    2.81931371488925   14.27656890399292
C        -1.86346820188497    3.87391590036886   15.15347890640028
C        -1.39312446207120    5.06805345427662   14.57680880085461
C        -1.33651297069559    5.25011613421207   13.21268216019034
C        -1.73883546097132    4.22581059927480   12.36168504042172
C        -2.19190197717301    3.03700989673737   12.88906477924705
C        -3.17889048886464    2.42108620934652   18.59736024225911
C        -3.93526800141473    1.38022787936527   19.08831091211110
C        -4.33136510610346    0.35290851302424   18.23791252520104
C        -3.96306854453538    0.38292059312136   16.91110316700635
C        -1.11277380499259    4.61149060317627   17.69999451440183
H        -0.26258887896457    5.10776416369250   17.23768383893369
H        -0.74198718887319    4.07661942162641   18.57229316332586
H        -1.77045019706848    5.39648908711976   18.07561278247465
C        -2.83757253918529    0.14963520195265   13.96294294302134
H        -3.79017605547762    0.11390110096583   13.43272034692975
H        -2.76242081372340   -0.77233792800488   14.53513154322188
H        -2.05952813015571    0.12493640537700   13.20269011134234
C        -6.02485335855382    2.60835324333432   14.99002976349181
C        -5.67967277758764    3.44755562300711   13.97769051419472
C        -6.16796870943105    4.86538835827477   13.81328742829615
H        -6.19332842217974    5.10675377505352   12.74824474588607
H        -7.18909465764321    4.93964296215824   14.18642767134036
C        -5.26205162965048    5.90090819932990   14.51115850054982
H        -5.81178237176849    6.84212245309855   14.62715837638108
H        -4.40713276514111    6.10255997138884   13.85976119638201
C        -4.71623292421336    5.48531773020278   15.85749903810899
C        -5.36658821602223    4.79696072745258   16.83177043174897
C        -6.79665728386510    4.32319438077041   16.76105202610022
H        -7.20857531807019    4.29753922667524   17.77243536701289
H        -7.38545706171466    5.04024429619172   16.18963273270581
H        -1.07051800671689    5.87134747325182   15.22568518827367
H        -0.97539809732167    6.18300875195849   12.80129308090667
H        -1.68991373164801    4.36432675404403   11.29015437493785
H        -2.49522774458510    2.24615149181217   12.21629424198350
H        -2.87138704427240    3.20972529941824   19.27082869217105
H        -4.21774384787139    1.35549639833927   20.13201767986711
H        -4.92139138445461   -0.46824671308494   18.62194264057316
H        -4.27261695935255   -0.42631680442410   16.26326676170190
H        -5.82584880642627    1.54572237970728   14.85668131986236
H        -5.17922110793884    3.02471771238239   13.11007522119741
H        -3.78979604254645    5.99064052259582   16.12691448138538
H        -4.90627032822021    4.74168450879821   17.81497778361491
C        -6.93469007963882    2.90984673583681   16.15832235548678
H        -7.97378675067219    2.74920389311277   15.84836092422922
H        -6.71337161174864    2.17994937714588   16.94200738136010

