72
CSD_code = YOBDIF | q = 1 | S = 0 | Stoichiometry = C24H39ClN6NiP(1+) | MND = 4
Ni       14.20231550292881   14.26787944749365   14.05537725970742
Cl       13.66263035865244   15.92069213086653   15.07513554915885
P        12.20524220602603   12.28388116840608   12.15850470430432
N        12.61767995273756   13.04807833031017   14.84848223798560
N        10.67213713446493   12.08102145239024   14.50880527004107
C        11.81120842981968   12.52193925808649   13.93020815974856
C        12.60638374350599   13.44240679356433   17.31048096850414
H        13.59966410914197   13.82896481382219   17.05047900498419
C        12.75917628948625   12.28966971804730   18.30392083560027
H        13.33205532558928   11.47384524441810   17.86780942068683
H        11.78498350608144   11.90860827855617   18.60042915916291
H        13.27621115315789   12.63659700325540   19.19426936875105
C        11.78156487624573   14.58107824088352   17.91159135364146
H        11.71099877860578   15.40655504287116   17.20823777857207
H        12.25830455691317   14.94303598524871   18.81807770879860
H        10.77917245029796   14.24023527500233   18.15928819010543
C        11.98154297576296   12.96043087836305   16.04266241219722
C        10.76274960537597   12.36139450739476   15.83496581298067
H         9.97840886191807   12.11683659314226   16.52085984709019
C         9.52233980420312   11.54318299216012   13.82645947183891
H         8.98689265579650   10.88690373760357   14.51570667517062
H         9.87225471036106   10.94970267474047   12.97505761358827
C         8.60723203100704   12.66362194480238   13.34225205849988
H         7.76014334626762   12.24568506382870   12.80681892040426
H         9.15107634709545   13.33247104676487   12.67646641222058
H         8.23605563757290   13.24370358085515   14.18323724907781
N        14.78843600014571   12.73772794030165   13.17145934030304
N        14.65320377613817   10.85846303002587   12.05797585143624
C        13.98279180035958   11.95467406101225   12.46646912776146
C        17.14867525293462   12.77898364371697   13.95953984868369
H        17.58132125701857   13.54084724818661   13.29679759244533
C        18.23404247504010   11.76252591607621   14.30678817926984
H        18.66387479212189   11.33258599586467   13.40632434420334
H        17.82703063454399   10.96081506355225   14.91852131862609
H        19.03060071108035   12.24859593871648   14.86321938598260
C        16.63287561746996   13.47397522445042   15.22382254669272
H        15.81938981157305   14.20652615588874   14.98186566681869
H        17.42892729855003   14.03884294508240   15.70201407832064
H        16.25040023811498   12.74076626312048   15.93292578917543
C        16.00676673503199   12.13754692116879   13.23182554185575
C        15.92363554842170   10.95767208801841   12.53730192276898
H        16.65837902404822   10.20238384090965   12.35102736399235
C        14.09216393070256    9.74236021608105   11.33753152698513
H        14.90324043790297    9.22242506116920   10.82406717898435
H        13.39291635619430   10.13023182248789   10.59018363352764
C        13.36701102237142    8.79301031351900   12.28560039321249
H        12.94353974567016    7.96478396568622   11.72588225904734
H        12.56147146640183    9.31727184652201   12.79899730151355
H        14.05296962807031    8.39557660116327   13.02948445762731
N        13.34035852475821   14.86992117682433   12.29917294378619
N        11.89260957405254   14.65392894471454   10.66706775479436
C        12.47069109281174   14.04583396199970   11.72357752356676
C        14.23906918992909   17.17034504056652   11.95500049999161
H        13.89010627503755   17.58312261248337   12.90852252232822
C        14.20846257859424   18.26587634898547   10.89503911950515
H        13.20938311298318   18.68168285045206   10.79651619657309
H        14.52575129256432   17.87764795733988    9.92963413170546
H        14.88275296861905   19.06879003054567   11.17905525024533
C        15.66053738370623   16.63858233230266   12.16664886134740
H        15.65560746451450   15.84195074705180   12.92605094751510
H        16.30970223729366   17.43505341449710   12.51762729971365
H        16.06239870995964   16.23735713575675   11.23815795051753
C        13.33470310848847   16.03343297466686   11.59801402058028
C        12.42973392442227   15.90039136707286   10.57471533123463
H        12.13134038967302   16.58767495513573    9.81106148846644
C        10.94572090077633   14.06686667248388    9.75157113433691
H        10.28946380075869   14.85698178147044    9.38036115496717
H        10.34232691504956   13.33692446134122   10.30027224307088
C        11.66053037594747   13.38295859040795    8.59093624182306
H        10.93182020052383   12.94813666931078    7.91379880159413
H        12.30927390479314   12.59144903593020    8.96294061721165
H        12.26516816531968   14.09767763256006    8.03864987297278

