72
CSD_code = YOBDOJ | q = 0 | S = 0 | Stoichiometry = C31H35IrN2O2S | MND = 7
Ir        8.75448462311384    3.65080597763165    9.97889202714326
S         6.18470206961450    5.54113497417166   10.23824926552506
O         5.82286497410790    6.89258745595804   10.57730887660809
O         5.72935869096390    4.49586863208058   11.13059948311379
N         7.77833938227959    5.41078279863238    9.97280319706127
N        10.20749906424467    4.91519434050314    9.98566741521433
H        11.18267921009114    4.68158976027157    9.81355775794425
C         9.53443995019290    1.69163566200815    9.41693422719849
C         9.25458695882422    1.70016638104671   10.81330590238705
C         7.82107966011572    1.85424986353445   10.98083168755223
C         7.23454384100606    1.95173675129374    9.70615656919515
C         8.28162598974627    1.91017025663403    8.72900276617213
C        10.83139247787110    1.31713706203391    8.76469546593224
H        10.84143625137315    0.24701125869940    8.55103083275911
H        11.67450238900319    1.54272821798512    9.41242827960910
H        10.96963109754173    1.85037782594123    7.82698084217259
C        10.20897436997808    1.35809737139582   11.91409315279657
H        10.00392218303131    1.94796820387166   12.80449060324817
H        11.23730561002910    1.54004522270907   11.61326134749959
H        10.10741952631376    0.30307204258412   12.17433219219954
C         7.06321842642235    1.80941639532613   12.26339393783501
H         6.35517165135124    2.63698548878389   12.29217759167830
H         7.72652357600488    1.87712180949660   13.12149411149269
H         6.49948024813761    0.87763845456356   12.33176405521694
C         5.76672271011628    1.92322285599449    9.43768066875563
H         5.37968945826909    0.92142864254006    9.63330780687490
H         5.54353172899177    2.18580804392327    8.40685634963360
H         5.25765309114522    2.62252260995629   10.09683259087951
C         8.07439483572704    1.84736206447899    7.24977279326426
H         7.28487183065902    2.53022321147607    6.94057083801734
H         7.78179879483530    0.83573523695216    6.96223990441972
H         8.98503854292200    2.10187811504647    6.71277964232390
C         8.53535024283890    6.62700441189170   10.20473643524453
H         8.09649292157432    7.44416904151711    9.61489135049604
C         9.97961546511156    6.32145642240289    9.72903547587814
H        10.68934101588885    6.93095882148715   10.31201571533438
C         8.52482857676260    7.03570576310924   11.65845568936292
C         8.44228621173351    6.08617096492963   12.66657276088891
H         8.36048606333169    5.04122766056161   12.39957077565702
C         8.44765346655747    6.47168578529662   13.99485686023092
H         8.37461971015052    5.72450677476619   14.77211940043161
C         8.53878575034390    7.81156222258728   14.33069637416742
H         8.53553046511960    8.11361674939083   15.36811460350395
C         8.62589651841127    8.76414654612905   13.32986438319632
H         8.69089908604366    9.81215923489858   13.58526259236729
C         8.61999798153683    8.37779390636027   12.00181920403870
H         8.67532548762021    9.12379246427043   11.22168588068020
C        10.11420477962529    6.70026567056284    8.26628211730993
C         9.89184607718397    5.77328397110258    7.25723700526673
H         9.66695913463557    4.74971126117521    7.52920545424836
C         9.95104612134218    6.15145706411597    5.92729832922831
H         9.77196305310394    5.42055821841248    5.15148686000195
C        10.23930065103459    7.46243345320909    5.58964012178545
H        10.28722538995199    7.75889798612759    4.55215064565842
C        10.46756257730017    8.39284136647813    6.58999192526167
H        10.69504430405346    9.41708126289582    6.33290334345804
C        10.40450827683159    8.01424692631775    7.91883308631769
H        10.57913863541004    8.74292831480122    8.69769028665226
C         5.45470997533049    5.18103784591210    8.63172910951526
C         6.21429840492298    5.27271193476370    7.48231635623580
H         7.25228952860293    5.55750499163157    7.55597238081571
C         5.63681183692042    4.99118626836658    6.25539312595964
H         6.23186331313186    5.05862309482489    5.35536371512050
C         4.29776909834097    4.62625054255157    6.16668038345259
C         3.54495424063179    4.55312580248681    7.33418627971950
H         2.50211521437432    4.27590761680418    7.27841456052673
C         4.11994553674214    4.83042112285157    8.56209956116012
H         3.55071261493006    4.77152567259724    9.47644939967559
C         3.67090703357411    4.34424501635074    4.83476120169626
H         3.28845251794078    5.26988861148525    4.40397641376711
H         2.83880661359826    3.65160857549245    4.93481236087625
H         4.39847289342323    3.92809765159058    4.14173629309394

