65
CSD_code = YOBFAX | q = 1 | S = 0 | Stoichiometry = C24H34IrN2O3S(1+) | MND = 8
C         7.00107728529080    6.52340338759257    5.10222978885854
C         6.82889782824027    7.66001744548667    4.23642323208124
C         7.33850919829548    7.31706071682234    2.94813467888325
C         7.93842741619817    6.01486902055227    3.04740377114652
C         7.70913433044512    5.50680371488744    4.36507456917226
C         6.69410642996653    6.53513190708098    6.55794313271956
H         7.32047231564319    7.27369366225532    7.05868402732838
H         6.86783919838965    5.56434469391059    7.01187541166628
H         5.65282118620960    6.81607645609940    6.71039446506486
C         6.28293812550557    8.96256035849668    4.68603678431541
H         6.98511575607059    9.43065240831432    5.37748639158242
H         5.34808151954497    8.79703197224731    5.22036976891614
H         6.11293323892487    9.63455911091957    3.85032350664156
C         7.49926107707026    8.27201865943479    1.80746246067356
H         8.35739402576768    8.92098877363892    1.98633828320446
H         6.61649524995170    8.89860220323465    1.70331401107172
H         7.66575451954223    7.74986679038191    0.86834096761861
C         8.77368451404668    5.34953226015481    2.00799509396351
H         9.82411727913558    5.56404563994873    2.21155927405250
H         8.54905406803064    5.71597296287177    1.00955323176543
H         8.65061653209494    4.26883375796350    2.02618670262080
C         8.32290747331991    4.27436593302446    4.94464047832623
H         9.30175131385845    4.51980641411360    5.35918034032529
H         8.46139415537555    3.50448867126101    4.19033990733825
H         7.71022566555149    3.86839529842095    5.74484326130311
C         3.61293852033175    6.95800622279720    1.53204251995791
H         4.33647452477075    7.47564923252311    0.88305108836602
C         3.64603821811730    5.45859346771562    1.19181598288726
H         2.95413539143957    4.94784039362875    1.86927296502055
C         3.26325360707279    5.20553733068368   -0.26345898927958
H         3.27033846619608    4.13373538824357   -0.47228624459969
H         3.99170434525545    5.68750387620303   -0.92221423233094
C         1.87610998736775    5.78083850086301   -0.54082470582594
H         1.61565614372221    5.61868519423915   -1.58702483208042
H         1.14102950600336    5.26258932987296    0.07608571386910
C         1.84811697028697    7.27076145975458   -0.21896062974210
H         0.85068150203444    7.66850484853529   -0.40510413659686
H         2.54620324038000    7.80178899769155   -0.86974994321805
C         2.21725376315763    7.51480396988800    1.24266623813911
H         2.19683511143961    8.58190472229685    1.46576214517959
H         1.50111168709274    7.01106992457899    1.89151294480134
C         1.90639352288674    8.39907140290608    4.16430147791159
C         2.46220586072547    9.65798808072971    4.05238895009545
H         3.51949068532949    9.75206870453915    3.86523386932977
C         1.64690108711011   10.76994005547049    4.17425124385093
H         2.07393498084491   11.75780174950103    4.08699326059896
C         0.28314359454762   10.62965257076951    4.41356707783114
C        -0.25155882996736    9.34767784940778    4.52442879602663
H        -1.30761240086915    9.22753362194339    4.71293047289415
C         0.55505782682430    8.23157098968009    4.40190231197981
H         0.16005944589896    7.23184523261448    4.48789094263353
C        -0.60337210117866   11.82422801541666    4.55649057078854
H        -1.06010705598457   11.83552147895915    5.54494921032134
H        -1.40837630671418   11.78802207187346    3.82431622078330
H        -0.04705788372420   12.74717410338001    4.41999445921431
C         4.56128693491638    4.72991667479079    4.42008895924790
Ir        5.68575482908231    5.90484417605640    3.41908215864911
N         4.05601629004271    7.16677319575482    2.89581403193393
N         5.01819829727938    4.98104264816822    1.49042453886047
H         5.04138633615644    3.96327909138951    1.43458385445100
H         5.63561171204864    5.33151891343976    0.75544964363945
O         3.75649954621094    6.94957480670609    5.30693334614586
O         2.16273500260255    5.77075541420578    3.86602282173671
O         4.07919466044889    4.02877025460802    5.16542568370501
S         2.95332327834698    6.95749381906050    4.09801667217457

