33
CSD_code = YOBGEE | q = 1 | S = 0 | Stoichiometry = C15H11N6Pt(1+) | MND = 4
N         6.15350561787067    3.97158381275932    2.53025897309447
Pt        4.25663446150864    4.20565296719917    1.87346881871077
C         6.83485699652899    2.85538950213419    2.78898873300890
H         6.32914873477062    1.91222204921846    2.62875529069903
C         8.14198761270701    2.86274060461480    3.24644438284969
H         8.64365606597230    1.92903954780730    3.43982999379407
C         8.77817658299756    4.07877319332438    3.44680658937315
H         9.79524231478812    4.11953215666123    3.80299470133108
C         8.07984329271375    5.24405492303459    3.17981407173685
H         8.54696260297855    6.20400194452019    3.32598086758966
C         6.76837704073974    5.17406368334354    2.72209416678988
C         5.95443447815840    6.35378063449879    2.41674055362085
N         4.72011166103350    6.02960882828209    2.00182804637171
C         6.31696771748016    7.69399828200460    2.51007741740627
H         7.30063426893680    7.98360830435646    2.83905507245554
C         5.38155280544042    8.66182280038646    2.16796428260748
H         5.64421101582945    9.70552321897878    2.23289037774601
C         4.10974868786432    8.29715300762056    1.74251281239738
H         3.38848537381761    9.05209660208656    1.47852331393911
C         3.79448839078884    6.94517227253687    1.66584628206623
C         2.52818572875280    6.33409739978982    1.24830247333169
C         1.40258533622804    7.05226551177311    0.85843511149280
H         1.42576217266870    8.12958053386523    0.84916293675724
C         0.25462445826121    6.37287036395553    0.48458090436920
H        -0.62567706701312    6.91716573376466    0.18115422002975
C         0.25786365814909    4.98533221472390    0.50779509263348
H        -0.61512405713255    4.42094438865506    0.22428060542811
C         1.40862727377811    4.32477346934799    0.90479620394465
H         1.45810482383803    3.24386255399723    0.93829567015605
N         2.51242193025819    4.97317141341945    1.26562018618344
N         3.68335899280617    2.35801369900210    1.70307043656822
N         4.15484146193293    1.29103119229651    1.87354176284933
N         4.50859956454714    0.22667319004092    2.00468964866793

