70
CSD_code = YOBGEB | q = 0 | S = 0 | Stoichiometry = C20H43ClOOsP2S2 | MND = 6
Os        0.24647195661427    1.62732169186164   21.12041811633075
Cl       -1.29866291890625   -0.13742120214234   20.92634192540599
S         1.20718171609574    3.90979400754846   21.23227102117570
S        -1.60183848845427    3.42014105904116   20.80559603202919
P         0.34249185427322    1.44780485225080   18.70000636969935
P        -0.05576588976057    1.43830916648494   23.53829024384579
O         2.91199349460973    0.27072298876207   21.46952719439323
C        -0.33794074168292    4.49088075218070   20.95530421565829
C         1.86506024875805    0.74310799975512   21.31995860620362
C         0.53562903551056   -0.30834841575728   18.04789009497214
C         1.25542397427074   -1.23581412279159   19.02539822737760
C         1.20049990650624   -0.45222297939182   16.67870338053345
C        -1.17363009817289    2.06928725221766   17.77893039262031
C        -2.45363412426275    1.36809014307887   18.22735860515622
C        -1.10117187131033    2.02672017119157   16.25301316295006
C         1.72862267641534    2.37743327169086   17.84569790218629
C         1.51214467832721    3.88575884535405   17.76123160788145
C         3.04346276577653    2.08373830046781   18.56132818268260
C         1.43128620415192    1.78993403682441   24.64570637907464
C         2.42368982655607    2.76498370945226   24.01755861311934
C         1.12207299711824    2.24780388728872   26.07093111276864
C        -1.46198236145700    2.35399244539724   24.36458207128662
C        -2.81097638579975    1.89036508465819   23.82174429808450
C        -1.31679193852872    3.87005033553974   24.22397551414659
C        -0.44971108967475   -0.33612833952666   24.00344802166557
C         0.61450568491455   -1.29194954407355   23.46799261762049
C        -0.67961039605169   -0.61808242477835   25.48605884120284
H        -0.50614977515306    5.55808881613317   20.88846432572473
H        -0.50271707297228   -0.65540279075492   17.97867310890110
H         0.76838842331889   -1.22866252499617   19.99665555431517
H         1.22464261518515   -2.25492562311708   18.64270507291895
H         2.29789884060902   -0.95484404518911   19.15040328454562
H         0.76647969090962    0.18986110397531   15.91971829573196
H         2.26727041512621   -0.24996932047388   16.74289138034417
H         1.08209120859497   -1.48289180228339   16.34580237477467
H        -1.24322588412056    3.12130004715388   18.09088860488317
H        -2.59023714730655    1.42550274031354   19.30342808568408
H        -3.31241218536485    1.84338641976785   17.75512305214509
H        -2.44976546129941    0.31703558993876   17.94695680191401
H        -0.17774124381624    2.44399465850463   15.86061458790846
H        -1.21702449059472    1.00793772891576   15.89192738179216
H        -1.92731868426927    2.61209026736814   15.84959668691039
H         1.78757157874462    1.98296749461581   16.82697889702512
H         0.59095796897107    4.14340440831340   17.24479402815117
H         1.49329643441028    4.33047868250306   18.75249490592341
H         2.34039629295266    4.33585315455409   17.21489266473221
H         3.23363689563006    1.01493179933984   18.61990859744152
H         3.87229669841895    2.55185441246862   18.03237015331222
H         3.01838318434657    2.48146633987884   19.57545570687148
H         1.93007281341699    0.81393115560812   24.69707186541384
H         2.71492182029175    2.44078784889736   23.02095948304163
H         2.00624621037446    3.76679238593458   23.94397912615877
H         3.32183360649377    2.82060475125355   24.63106389297948
H         0.43768578329665    1.58233507606399   26.58691021068381
H         2.05281137334366    2.26888642365913   26.63730551720740
H         0.70716697691857    3.25206146936854   26.08324100920881
H        -1.40101596226055    2.10136214786391   25.42808537629723
H        -3.02757426400721    0.86402551247031   24.10721098237140
H        -3.60354974928206    2.52824817641347   24.21063754725958
H        -2.83346370886798    1.95103568985859   22.73472668994843
H        -0.27606582513954    4.18562998368207   24.27579466571346
H        -1.72495432116619    4.20645382463783   23.27480859344191
H        -1.86859840866553    4.37397791980422   25.01644218610484
H        -1.37597645115127   -0.54592800191124   23.45700030236697
H         0.71818715711803   -1.18214814179658   22.39071164616557
H         1.58481855939291   -1.12369572566296   23.93087559917353
H         0.31600100734395   -2.31806349059392   23.67399135149548
H        -1.42848268705799    0.03473359463463   25.92668500705424
H        -1.03712273026235   -1.64170832129427   25.59124046693949
H         0.24651978171426   -0.53585280840311   26.04985217895382

