50
CSD_code = YOBHUS | q = 1 | S = 0 | Stoichiometry = C11H28CoN4O6(1+) | MND = 6
Co        4.44756512690350    6.79888066492220    7.76456804306958
O         0.33970401169620    6.36294535684001    4.17721615975831
O         3.48801282621265    7.99622437789955    3.72753542422663
H         4.36977831706042    7.60595009382847    3.71883980907126
O         4.12316701465913    6.35376685037589    5.98757571173211
O         2.83525230756697    7.70645211091957    7.78421492197510
O         0.79025526432555    8.52810598942145    4.88411182567007
O         1.38334041495943   10.65781853132622    6.55810601351697
H         1.27761610729719   10.71059276440185    5.59926507715599
N         3.43806469696908    5.22706417973227    8.39250122718642
H         3.53158910224430    4.35768495109966    7.86953950463177
H         2.48396870960757    5.56770092244663    8.24098549905652
N         4.62968138702719    7.23671808257644    9.75280191712680
H         5.54386595014246    7.10951058391148   10.18266164404939
H         4.37365345869024    8.21324796777536    9.87663423294541
N         5.41202674890819    8.39739824341340    7.10826260846852
H         5.15039139641977    8.40571529548653    6.11829736888079
H         5.11840108228678    9.29621457177359    7.49005288833388
N         6.27862331289626    5.88260225215592    7.61214904688221
H         6.75336222471520    5.65943917214345    8.48485349751197
H         6.15395356250235    5.00789373048305    7.10893683569852
C         1.14942988133632    7.48916544871531    4.01686225365219
H         1.03083517642104    7.93037936315318    3.01451358715593
C         2.60419448184175    7.00452038180160    4.17992806756701
H         2.70677126868310    6.08623147061885    3.58686596543231
C         2.81746221347303    6.69019430491569    5.66835363446710
H         2.11598228860626    5.87763343836120    5.92999990133559
C         2.46683222341778    7.94585097156703    6.47599631692581
H         3.02292366643706    8.79856781839147    6.04784083230199
C         0.98530525637371    8.28205161035586    6.27037112378146
H         0.35304441721757    7.45199188888329    6.61417721392782
C         0.60992866588006    9.57845770830406    6.99912324808190
H        -0.46001028612688    9.77349152732196    6.84761437036259
H         0.81221063853532    9.45885156730270    8.06499629559181
C        -1.00422172903292    6.56543628925700    3.76893283846246
H        -1.52508509932253    5.63435268802251    3.97803682222719
H        -1.05027505559303    6.78634057137158    2.69828580375103
H        -1.46437728764359    7.38610639446221    4.32509920621203
C         3.63794670386226    5.02299113108469    9.83009293610400
H         4.59986034051738    4.52938894157507    9.99516632694881
H         2.85044723530622    4.40201090439897   10.26966958309961
C         3.63625597523112    6.41082982242838   10.46189846395066
H         2.65754371646309    6.86541650892355   10.30181233366880
H         3.83684518214579    6.35581382297535   11.53566493312184
C         6.86126780642836    8.20697234760298    7.21335963391468
H         7.17411611723561    8.37190712956355    8.24800792651483
H         7.41446169409097    8.90028655048040    6.57117810771393
C         7.13762091882467    6.76423477109244    6.80119602798286
H         6.84844232694473    6.63642943781560    5.75721025998930
H         8.19826823935002    6.52026849631952    6.91083672880440

