38
CSD_code = YOBHOM | q = 1 | S = 0 | Stoichiometry = C8H22CoN4O3(1+) | MND = 6
Co        4.80517942987026    2.78192383759420    3.65869709812635
O         3.36145720945114    3.58333430446285    0.35695331855922
O         3.49274911138516    4.05522950873415    3.52732282078032
O         3.69825401463597    1.66924461688459    2.71964023024410
C         2.75015756382559    4.51922902682296    1.22772232152112
H         1.78745953923648    4.83857907475836    0.81315346332634
H         3.40661523878361    5.38237542980626    1.33238531393643
C         2.52996528637565    3.77760909566021    2.57200010574114
H         1.54929231331234    4.04225758386909    2.99219542749912
C         2.59127554851323    2.27793407288477    2.15193927154659
H         1.68755636736327    1.72785865000455    2.45160753896714
C         2.70131058582367    2.35783981659659    0.61335515489321
H         3.29870228778669    1.54741409595388    0.19743726486165
H         1.70480260690830    2.35983372741027    0.15723959015895
N         5.85459937113820    4.02643474960590    4.88630701624522
H         6.83863758309514    4.24671772190734    4.74945504294535
H         5.33190110473904    4.88868454710222    4.72557182021034
N         3.91876318497163    2.19462541109894    5.33233906286662
H         2.92167158582265    2.14086007342951    5.12773680885363
H         4.19946439062198    1.26873785415523    5.65315897550892
C         5.62297658500777    3.61943224277495    6.28021126526131
H         5.83441923940087    4.42867836759167    6.98680362853546
H         6.27594588848392    2.77472516925913    6.51683013152460
C         4.16179601879544    3.19608888348254    6.37816750439446
H         3.92859254894013    2.81519475792742    7.37674078099081
H         3.52964928300283    4.06019647706936    6.16503148403473
N         6.23504647454128    1.32936405799216    3.59766023327662
H         7.06257114028532    1.46684477982594    4.17604161968229
H         5.83201583632386    0.43185977282277    3.85570492545382
N         5.63764025967930    3.42160400911578    1.98953680585362
H         4.93094061659224    3.26895706492759    1.24686935497728
H         5.81984765446714    4.42429319776702    1.96309899185279
C         6.64466631506570    1.24784916822435    2.18321059737902
H         5.81677854731476    0.80024362286835    1.63223260001214
H         7.54450588989094    0.64012219090757    2.04916570317119
C         6.86091213023562    2.67074614230854    1.68373733901054
H         7.70785505017680    3.12240903140597    2.20972439679851
H         7.08032619813595    2.67206786498851    0.61201499099911

