73
CSD_code = YOBKOR | q = 1 | S = 0 | Stoichiometry = C26H31F3N5NiO5S2(1+) | MND = 6
Ni        9.07454610799399   10.54953480395102    4.11158891250654
S         9.41796500784357    7.82074297255633    5.77021506685673
F         7.40707200259651   10.11460012372762    8.12195743474591
O         8.10395097242162    7.31522094020484    5.56338698696157
N         7.77226308040361   12.00816595077770    3.11830971678224
C         7.59839284064504   13.26445629685412    3.53420601031150
H         8.41094571117436   13.70400336366269    4.09544303370181
S         6.83410499779056   11.01045400259309    5.68950896487488
O         9.70511974672930    8.84372361803686    6.72400626182898
F         5.82703528205240    9.02171029723316    7.13306382106871
N         8.29732528246605    9.44984539887613    2.28519525261198
C         6.44763168225795   13.98512171711084    3.28565245079384
H         6.34764845886501   14.99024019944553    3.66051074534775
O         7.69460416159008    9.95801889989216    5.12056314039615
N         9.96680937075056    8.43865369470327    4.24191471123450
F         5.44569741540856   10.97940106881909    7.94965410403446
C         5.42993206538614   13.38304419077180    2.56074276538197
H         4.51146081787367   13.91040769276965    2.35559008769731
O         5.60494809025284   11.18337488623605    4.97720593342175
N        10.53330698089510   10.96500147016613    2.98030501802514
C         5.61045834839043   12.08764546005984    2.11621635662383
H         4.83923291534265   11.57760053365843    1.56149592407207
O         7.56339296952966   12.20140084130397    6.03044164752203
N        10.25048516779478   11.59822045817080    5.52564056744974
C         6.78769737509580   11.42382701124581    2.43693231026415
C         6.94732902496790    9.96789801886235    2.07255636518908
H         6.26287398271155    9.43317569793932    2.73826082863891
H         6.61607982929221    9.80387117139345    1.03615720973142
C         8.27943610597916    8.00869605369909    2.54760577610262
H         8.06088260704789    7.43505633125627    1.63645890167206
H         7.51304560736063    7.81613037956223    3.30003888605847
C         9.60839550266713    7.54038185932705    3.15648377691414
H         9.47272268943745    6.52389675852754    3.53667944378193
H        10.41212677840933    7.51315616028727    2.41695301044631
C        11.33502836867148    8.92075031225291    4.26866722659234
H        12.06264231252653    8.09963444081338    4.17207225998881
H        11.46546347762586    9.39462088324583    5.24412774260150
C        11.59556347627940    9.93404781475974    3.14205515084472
H        12.55659113322939   10.41598265925914    3.34196237549138
H        11.69337410510506    9.38950730257697    2.20143689223788
C        10.08240034362555   11.01601668618554    1.56964733434686
H        10.94907963636852   11.08604458168203    0.89935535873389
H         9.48146195640154   11.91598226248787    1.44255664472684
C         9.21904327914869    9.80405303721372    1.19445157777129
H         8.66803855298690   10.04565000070573    0.27707679737670
H         9.85416843335470    8.94613957532509    0.97090737011478
C        11.04273015818184   12.29658184745264    3.36755213352132
H        10.38557493661211   13.05936402759163    2.94021126343788
H        12.04878892924425   12.46412589538215    2.96084736121242
C        11.02331736811990   12.46766606793431    4.86547287794232
C        11.71443968324914   13.48323860754373    5.50657810421232
H        12.33001480404314   14.16611873475757    4.94189576775326
C        11.58319155484734   13.60784603131182    6.88211842100413
H        12.09553543928999   14.39828011811857    7.40883509496522
C        10.79030013829406   12.69769727015106    7.56030996549874
H        10.66669213304596   12.75502885320617    8.62900829591948
C        10.14283462439512   11.70063279167104    6.84500178580889
H         9.54765213102285   10.94838664866051    7.33845331822557
C        10.51245567259399    6.43569599264694    6.06513705543377
C        11.75300629454119    6.64636887700035    6.64327558596033
H        12.03841934152496    7.64505150639113    6.93187803196772
C        12.58444901574741    5.56800441223957    6.87990579480586
H        13.54901719486515    5.72509472436533    7.33866950690910
C        12.18775492690249    4.27285813773160    6.54920465939910
C        10.92994205292664    4.08212654189833    5.98647544192108
H        10.59835897435012    3.08375877108637    5.74518975002291
C        10.09036689103260    5.15699976803495    5.74849545209068
H         9.09707972315981    5.01453424824777    5.35322024044795
C        13.09794934462437    3.11975186800273    6.81916411902895
H        12.64151530285088    2.18005373634996    6.52307226728929
H        13.33834055810570    3.07163607042789    7.87974381550581
H        14.03422630720437    3.24081955317004    6.27660266378865
C         6.34847244449399   10.22827101843153    7.31872307204556

