98
CSD_code = YOBLOT | q = 0 | S = 0 | Stoichiometry = C46H26F14IrN7O2P2 | MND = 6
F         5.55766275350252   13.10054141388235   13.02330310761824
F         7.11076038385423   11.84961703326201   13.83191737705123
C         6.34869258459961   12.06991399628519   12.74660650544419
F         5.56049863266973   10.98868032417581   12.62221246386103
O        10.82253707675832    8.97026679204161    7.21945016275480
F        11.59653497402444   13.17833810085644    4.72552086895694
Ir        9.46678120255797   10.13855964341848    8.51729841899576
P        12.03011415029442    8.23786445988398    7.76781683813329
P        12.52396134863387   10.38461592257623    9.55260361068249
F         7.10783671524407    5.16419010058216    7.10264876176133
O        11.08844703979770   10.72786567479624    9.89322145753332
F         4.35625089300364    9.88847371512349    4.52226357371210
F         5.94596277200567    9.14402471040620    3.27752060008838
F         6.07274170889555   11.11495985449011    4.11811201051301
F        10.30752777489832    6.29184644131474   12.06783597793457
N         9.10845134807448    8.44147232220931    9.48929050016404
N         9.86694931433702   11.80435158019639    7.52436041116020
F         5.57977059917584    5.91732980409967    8.43025282234720
C         7.31683107260158   10.03120864019608    6.30625790088000
H         7.55120233282149   11.03645412600996    5.99150925747315
N        12.79955995777017    8.87264862520067    9.04564506050971
N         8.03778710530546    6.34527606995233    9.32031032464922
N         7.56987622246577   13.52948450183323   11.28222180724185
C         6.38079062993311    9.29083106613615    5.60001731561256
C         7.93916018943044    9.45332772729677    7.41170095849468
F         5.18111772354886    5.69518553017017    6.33899527223084
C         8.40793912900862   11.43012741993998    9.62958034164727
N         6.03291649072935    8.05324860015683    5.91150875333672
C         7.60702215961795   11.19878722481697   10.74401105441467
H         7.29828247914132   10.20199381463507   11.01942180507377
C         9.53809161805617   12.96764412020904    8.14435860268460
C         7.55373288647938    8.13158496908546    7.74422742822442
C        13.13003140080174   11.67141103700523    8.40495775175761
C         8.24199237515946    7.57444828873087    8.90045307962275
C        13.19482133623630    7.98871527869911    6.39508946901451
C         9.79572447994585    8.01191076040466   10.54071152197021
H        10.49232134538942    8.69542771949486   11.01018873349205
N         9.86533151811819   14.15712369399514    7.68676939373292
C         6.59632109405916    7.48205976846474    6.95551510303646
C         5.68277461120267    9.85532516072777    4.37890762705777
C        11.58612234486373    6.54163888621276    8.24886015263586
C         7.20210966724291   12.28165488889017   11.51313154760144
C         9.61787083101278    6.71826800057889   11.01159410773121
C         8.74552026018088   12.77762559429222    9.35129427368278
C        13.76503694000361   11.36796922842108    7.21196934026060
H        13.92195392174294   10.33173159172419    6.94395616131150
C         8.70462972639723    5.89547669364845   10.36326407603107
H         8.50575128287639    4.88106168668342   10.67513611438610
C         8.32406263402873   13.78023366375315   10.23187769144574
C        10.65122411952118    5.85168046844549    7.48995477954540
H        10.19034155426451    6.34295614085465    6.64394481762239
C        12.92746328001657   12.99677079833300    8.76999064343381
H        12.42837827129653   13.22071309709395    9.70271971304797
C        14.86057875579939   10.17722948934693   11.00517378091682
H        15.26046638000040    9.76177512972989   10.09163325750880
C         6.11767449365344    6.06311584983855    7.21169389235394
C        10.55875796790236   11.87677660205934    6.39232598636412
H        10.82508238342774   10.95004870568183    5.90153531770921
C        10.31063449874289    4.55337584133187    7.82451823700003
H         9.57120480505422    4.02500849275590    7.24363421756647
C        11.85990922552270    4.62618408261563    9.66359852764234
H        12.33095100029346    4.14666152271943   10.50896248710327
C        13.52983309222816   10.56752193883149   11.03998843749392
C        10.91719150248659    3.94251247763026    8.91105655666206
H        10.65633043772583    2.92713781795273    9.17005520888363
C        10.55185496048400   14.25615127553689    6.56757705051687
H        10.79676895777704   15.25108781832430    6.22633246524511
C        12.19442261749531    5.92743000938726    9.33410851717000
H        12.91517605428378    6.48618459479344    9.91305106418301
C        10.91957489124418   13.10994565535395    5.87137442534997
C        13.77319650131316   11.24124716082111   13.32601471174111
H        13.35192801585393   11.65482815614029   14.23038568601922
F        10.06534217652532   15.38162965286062   10.03575513483025
C        12.98528987638127   11.10206016111104   12.19673822216000
H        11.94660315013224   11.40175261703787   12.20169018702358
C        13.35594079192003   14.01462098278817    7.93782820490556
H        13.19722041348017   15.04335788372191    8.22490682620503
C        15.64539141604822   10.31665936320058   12.13435782027489
H        16.68181764886230   10.01291546474538   12.11444444834253
C        14.46381964855408    7.51014900407422    6.69129764095714
H        14.71696493919113    7.31142711992143    7.72294810658288
C        14.19576445535525   12.38731558224723    6.37967296612925
H        14.68924557089456   12.15032625425071    5.44890351366293
C        15.02308860988439    7.58502830259822    4.36212707234530
H        15.73756407815080    7.42886156290377    3.56779234384530
C        15.37828354828247    7.31077451915642    5.67439416554026
H        16.36700340403538    6.93965709414984    5.90016686882356
C        13.99259449946276   13.70864752147956    6.74343055894243
H        14.33094684701014   14.50215482943288    6.09396845450348
C        15.10124629404002   10.84918542508138   13.29342837115428
H        15.71593235157291   10.95818755246568   14.17474537379920
C        12.83743318052664    8.25660188867680    5.08295222812000
H        11.84256551817881    8.61990653775367    4.86888932860304
F         8.22301358030612   15.81166924747054    8.99429602004506
C        13.75440450893976    8.05593366843109    4.06612319289242
H        13.48027803532559    8.26663582895735    3.04305882869497
C         8.73098704040738   15.23699503551518   10.09234578697575
F         8.31964761161075   15.96620750743610   11.12783105759202

