50
CSD_code = YOBMOU | q = 0 | S = 0 | Stoichiometry = C23H20N2NiO4 | MND = 4
Ni        2.69525993837453    2.62245475173749   12.74514496300112
O         2.29228627467790    1.02110185567931   13.56424057906050
O         0.96651599827799    2.61375109523329   12.10597377848325
N         3.10046458116956    4.23122564412156   11.90415256634940
O         5.24522631847207   -2.59846006392338   16.41960063084962
O        -1.79974710514576    5.87139644148493    8.68321298218171
N         4.44550615561599    2.61773058228428   13.38092615913758
C         5.13648246226616    3.77629424752564   13.01557083982074
C         4.41860459488694    0.47519445223476   14.50596669124103
C         4.60783074798881   -1.62081178232140   15.70748555800916
C        -1.64603582254614    4.00676703794379   10.10016148997800
H        -2.67216662938036    3.81716153624942    9.82509580752073
C         2.47818242437228   -0.97403720898421   14.75906067066178
H         1.43279740894057   -1.15797483979541   14.56680194731350
C         3.03297679333724    0.23125198247361   14.23770900469229
C         5.18037319915655   -0.47109630883838   15.23647638049357
H         6.22307294381715   -0.24963367791803   15.40778258900628
C        -0.98208238270509    3.18508730546994   10.95719155361640
H        -1.45992901384534    2.31840002541826   11.38614854259718
C        -1.23374010676429    7.00188532679727    8.07067359721433
H        -2.01277174036472    7.41457680508295    7.43148420525421
H        -0.93651318798711    7.75401701726691    8.80996563060314
H        -0.36654447293854    6.73477116556568    7.45662010775997
C         4.98486973608210    5.85993795365866   11.79303921188895
H         4.44572112136074    6.57071300556979   11.18699675842254
C         6.27338070128212    6.16701470416997   12.17530532982048
H         6.71497123708979    7.09886699160420   11.85441304486985
C        -1.01700091330977    5.14083863683332    9.53360463925072
C         0.28137323423912    5.41879503889986    9.86374864715965
H         0.79457994354736    6.27777081500845    9.45841178656419
C         6.43516943415659    4.11526642145276   13.39500672124197
H         7.01316626939335    3.46530416146896   14.03354426688444
C         0.99992808428955    4.58424972446080   10.75576721700023
C         4.39560017701621    4.66288913774338   12.20105571689440
C         0.37539498270301    3.42516978118677   11.31870884559155
C         5.03161002525501    1.65677001502991   14.05654182812996
H         6.08541697299945    1.75999798809074   14.30498504289353
C         7.01294567094787    5.30225491706340   12.97876034503754
C         6.61458337413790   -2.43646825867855   16.68649215944393
H         6.91248488380981   -3.31673434688701   17.25402004933903
H         7.20098684325669   -2.38650401563753   15.76237029964986
H         6.80509675550028   -1.53941547532338   17.28549737711853
C         2.32610413517263    4.90851453536641   11.08921814443808
H         2.72131513672992    5.80529639969211   10.61760268790879
C         3.23463449553846   -1.85997788068305   15.46088955758813
H         2.81144661305536   -2.77383662257664   15.84880991458164
C         8.40415942286910    5.67134662053820   13.39302988882560
H         8.88189381651046    4.86027871316230   13.93622741595270
H         8.38463089894764    6.55194343330327   14.03456167833130
H         9.00938756774286    5.91126421469620   12.52014515032571

