98
CSD_code = YOBNIN | q = 0 | S = 0 | Stoichiometry = C52H40ClO2P2Rh | MND = 5
Rh       12.90884978097898   10.97497986651033    4.18763038516421
Cl       11.03464346026368   11.14736059567436    2.72097468922657
P        14.06158666277333   12.23308728385226    2.68947418768898
P        11.56071821061094    9.77134791465869    5.56314115238614
C        14.45639581226068    9.77509280721032    4.47392073716424
O        14.56167600408251    8.81280148143836    3.75441751371710
C        15.39192298291433   10.12996947472591    5.57481260950565
C        15.01892003052154   11.23406859405427    6.25946539926414
C        13.77999290847119   11.86359984824067    5.72515563420353
O        13.27925921234818   12.87757360499275    6.14739231090655
C        16.54192579275980    9.26908469470063    5.83197367385737
C        17.30682466229498    8.78678285960125    4.77152153847044
H        17.05534577598669    9.07098007199862    3.76164425862744
C        18.39372247339341    7.96740501905275    5.01378476778716
H        18.98617376162097    7.60620401186671    4.18607984111826
C        18.72095597369610    7.60585171527442    6.30961229721865
H        19.56790066278777    6.96210526317171    6.49591920837644
C        17.95513855779018    8.06987806284066    7.36814264083573
H        18.20285453463475    7.78430091513118    8.38015512920833
C        16.87548947285863    8.89816601297205    7.13526538987930
H        16.27380992526159    9.25727793839970    7.95661785337660
C        15.70780352549716   11.85881705016684    7.38336223095627
C        17.09644207498571   11.99876949084643    7.37877517694350
H        17.66124961834459   11.63649097646628    6.53298431329524
C        17.73769096070177   12.60879617175514    8.43821827699586
H        18.81246377491856   12.71723590214076    8.42311272599490
C        17.00827198098713   13.08015139302577    9.51904330634075
H        17.51384943937724   13.55282296924068   10.34815656648055
C        15.63028907665692   12.94599088653240    9.52947764337167
H        15.05783867394000   13.31331895615484   10.36846977415145
C        14.97956395500008   12.34721467507720    8.46675527191598
H        13.90618677150444   12.23986160861837    8.47834624881698
C        15.87442673520974   12.25738956853199    2.88214837014082
C        16.41293946218332   13.02623331821325    3.91171338533103
H        15.75784347144155   13.64158258166584    4.51504756443408
C        17.77322518590405   13.01409742991653    4.15168570220948
H        18.18472861298205   13.62822139090093    4.93944857117126
C        18.60577274752282   12.21441904754355    3.38386553000174
H        19.66846774605514   12.19904593310485    3.57604943287529
C        18.07374560049091   11.43553425978112    2.37047216322956
H        18.72150420892275   10.81095153457165    1.77248395903535
C        16.71278832364535   11.45483334710408    2.11767169066223
H        16.29877090784390   10.84954836425268    1.32297621936496
C        13.83298063726206   11.70543972273367    0.96340074786230
C        13.76524209317281   10.33339433994326    0.73032284098787
H        13.84567458265562    9.64445682551196    1.56309335528045
C        13.58065058935200    9.85731078799866   -0.55350183606135
H        13.52474586979868    8.79311155027954   -0.73071576883802
C        13.45487002829639   10.74578836184141   -1.60970499250176
H        13.30142401065566   10.37471162960589   -2.61258121513548
C        13.51167863901916   12.10971453082651   -1.37843542987767
H        13.40165074014173   12.80242476200908   -2.20032897094256
C        13.69881776046031   12.59410423187848   -0.09533572864206
H        13.72578642525952   13.65988611951689    0.08153928508900
C        13.64948486417077   14.00159927165499    2.69124473665211
C        12.42661139965930   14.39268896849859    3.22455785774426
H        11.75763430464196   13.64219847459038    3.62777345200440
C        12.06787599752697   15.72863535936986    3.22676223255929
H        11.11753991844092   16.03017345889728    3.64172734887501
C        12.92689500642580   16.67736732817648    2.69810522846228
H        12.64821319158013   17.72110569617680    2.69997120992104
C        14.14789296875481   16.29107249403054    2.16676990553484
H        14.81760170275810   17.03240393597979    1.75483927606168
C        14.51317555190446   14.95788825374145    2.16214713210790
H        15.46940582156163   14.65574649110397    1.75530077006846
C        12.16350163975908    9.51873225894539    7.26577212270952
C        11.72788898663512   10.28937920322266    8.33684040920832
H        10.94543932287969   11.02093733289055    8.19014820288683
C        12.29193762599372   10.11668481514676    9.58941946721567
H        11.94897801049255   10.71796552338176   10.41898633821575
C        13.29003883640109    9.17676949512361    9.78152842697983
H        13.72579504556625    9.04340306073900   10.76067983319664
C        13.72919292377564    8.40645483687390    8.71571667914995
H        14.50135301182214    7.66545708416155    8.86338001536847
C        13.17864599440420    8.58463030318106    7.46151980734826
H        13.52393410155325    7.99204243920338    6.62364583694468
C        11.18240592551562    8.07517838864767    5.03853061394184
C        11.35698231677654    7.73991471644748    3.70086186447524
H        11.71908481804886    8.48884940944571    3.00777442210553
C        11.05822911184773    6.46175742042084    3.26394258074132
H        11.19456184090153    6.20272433388749    2.22448557088286
C        10.58594908720975    5.51626396984486    4.15864279800633
H        10.35278975519892    4.51780246867635    3.81836358104863
C        10.41217050515922    5.84720735495588    5.49390791679306
H        10.04332910925469    5.10845220654064    6.19101512543816
C        10.70935909494299    7.12208174479077    5.93764754018590
H        10.58075659794912    7.38122276081647    6.98051063876693
C         9.93719819779287   10.55599634381364    5.80415776263792
C         8.73943737911258    9.85356450063531    5.80744295637704
H         8.73659681574819    8.78161783307999    5.67035173422911
C         7.54497577040279   10.53457301507338    5.96863134829724
H         6.61333248047581    9.98734949192914    5.96489515624952
C         7.53936796774683   11.91036461655379    6.12288860530205
H         6.60310105098574   12.43628523378363    6.24043843827901
C         8.73322382440351   12.61451427577490    6.11206359633815
H         8.72962777112147   13.68942635949612    6.22058360362258
C         9.92899938549110   11.94215900352301    5.94916929083988
H        10.86499407874523   12.48867071255192    5.92204093706786

