93
CSD_code = YOBPAH | q = 0 | S = 0 | Stoichiometry = C36H36N6O14Pd | MND = 4
Pd        5.01577135713708    5.25716601940111    3.99198889720507
O         8.01951575276408    5.44384567184114    6.89806269411901
O         6.23793419062515    4.36218969780247    6.35916999579547
O         5.45069232907018    4.09317460708848    1.54304657829496
O         6.99865936142990    4.87194460786060    0.27777696509674
O         9.19498316931022    3.84928207264945    0.96170061183184
O        11.03719088809660    3.61357928858395    3.19459684221553
O        10.00745684825469    4.13564147093509    5.74087243199917
O         4.20658271692283    6.14415396647528    6.52762988735643
O         2.55622628885826    5.06874839084547    7.38817698187361
O         4.18429203640928    6.46793963488724    1.64972512674957
O         2.43112597324912    5.67130902912042    0.69440803449775
O         0.43548017529803    6.26124756184099    6.59438800632572
O        -1.04786389478877    6.92149851058787    4.17358711089349
O         0.35362604559808    6.83434413996962    1.77569012629642
N         6.23986300963179    8.01085712475493    4.41621133742959
N         3.90367608309180    2.49316665996828    4.62036628195299
N         7.34565649915015    4.80910191902493    6.11506834394982
N         6.59317380228989    4.47225394309908    1.34158399244419
N         3.07333380685579    5.69367807871748    6.48949314476988
N         3.02752020640356    6.08344016945845    1.66086089263179
C         5.72351250773968    7.01881742377270    4.09911611707178
C         6.81412468567742    9.18926951079470    4.76349190753176
C         7.06614847194237    9.43916631431571    6.11885163717848
C         7.65196032837986   10.65512085109798    6.44198176423351
H         7.85842448668003   10.87862190882944    7.47789852802452
C         7.97089756689354   11.57663519028116    5.45993751049988
H         8.42519761518179   12.51680018629523    5.73472882811897
C         7.71102642800793   11.30460191912882    4.12655394821589
H         7.96270265170885   12.03050939540724    3.36793500145417
C         7.12760964361622   10.10552526492167    3.75115963399830
C         6.72931684730040    8.42360136155943    7.15886282083421
H         6.69014583706880    8.88171871715344    8.14320742469854
H         7.48807866208712    7.63904798363815    7.18318813184817
H         5.77856091920133    7.93414353318846    6.95128429712408
C         6.83613016512513    9.76844317264684    2.32357268721210
H         7.44270638611036    8.92199469769391    2.00011398831911
H         7.04782175081281   10.61518915378209    1.67672374550890
H         5.79330027480553    9.47822547622912    2.19848966936539
C         4.34191174349401    3.49146638713814    4.21702911079791
C         3.41838420984193    1.30596573500602    5.06122704270296
C         2.96382908040697    0.37636029251240    4.11681136128618
C         2.47643173196639   -0.83251653922687    4.58553365692589
H         2.11997276922146   -1.56835778840112    3.88029676880260
C         2.44463434792353   -1.10166977569654    5.94426397918498
H         2.06234581502891   -2.04958673373801    6.29228993765288
C         2.89917932655894   -0.16710031595976    6.85798592258294
H         2.86971155029832   -0.38808690542812    7.91436236377059
C         3.39652433986613    1.05948348585255    6.44023108154049
C         3.01117512561590    0.70999246648592    2.65951223926412
H         4.01753907300108    1.00343832463127    2.36173780998065
H         2.35568592163139    1.55320321153658    2.44005125230807
H         2.69838555043641   -0.13974161970814    2.05914712361357
C         3.87490757043243    2.08839976195975    7.40868688229186
H         3.11254549879110    2.85641589524336    7.55323917770228
H         4.76877746863523    2.59607589796392    7.04849796342341
H         4.08325953857632    1.63726355818543    8.37480957817392
C         6.96288804981764    4.61738390609789    3.73370727428735
C         7.50123354937609    4.40137727642484    2.46583344021520
C         8.85996563662407    4.08635035091570    2.23333640383137
C         9.71199092643179    3.99117548561235    3.35044623510440
C         9.22317099079183    4.26946068058146    4.63337732782462
C         7.86322081609906    4.55927920265266    4.79894322795202
C        10.52358873641456    3.62427748907717    0.53982461545955
H        11.20188160516343    4.38983557791741    0.91794499557629
H        10.47729585030579    3.67431853712133   -0.54769346785357
H        10.88146257208759    2.63727791074192    0.84199264785045
C        11.34982357129590    2.33262413899191    3.71919111646932
H        11.13770981808677    2.26775209688402    4.78834011418061
H        12.41574977816081    2.19654993229461    3.54676798961405
H        10.78915659943450    1.54985509389908    3.19652717703181
C        11.11766809169546    5.01354754542991    5.84778930320837
H        11.74813490306512    4.98787746399024    4.95689418437428
H        11.67907091558629    4.66873948052205    6.71329792446760
H        10.76686957627446    6.03421606742167    6.02453471735571
C         3.05737835949219    5.90187619175559    4.09108719362768
C         2.33215598709010    5.94299775499846    5.28028890719863
C         0.95474377015810    6.24248211886363    5.36103157495879
C         0.28657830701630    6.54781315276422    4.16148520519546
C         0.96911281971951    6.47470419276290    2.93869482280337
C         2.33239237622942    6.15230561815811    2.92406025913387
C        -0.93562754001775    6.48654091816380    6.84724785921714
H        -1.21417256552252    7.52624842590317    6.66068030408662
H        -1.05927244143760    6.26428225691190    7.90674210956633
H        -1.56860086798492    5.82682213665736    6.25290868779268
C        -1.28895852638849    8.27606289684817    3.82543049894672
H        -0.82255961554076    8.95335679350889    4.54954494093731
H        -2.37002059159067    8.39795296640095    3.85381580470877
H        -0.91665360729911    8.51174542930596    2.82670698989880
C        -0.68143061337965    5.97793276064449    1.31584831942424
H        -0.25228698670064    5.03399777048051    0.96935644034062
H        -1.13884626616231    6.49730684782515    0.47678871874160
H        -1.42667652036154    5.78857356768559    2.09151095981214

