55
CSD_code = YOBQAI | q = 0 | S = 0 | Stoichiometry = C19H33NOW | MND = 10
W         5.23961599725219    1.90596423879170   11.20814264048588
C         3.60388559152142    1.94201052408148   12.80925253013142
C         6.58762298773414    2.02723775118375    9.31905345877195
C         3.68288551031923    1.60602618423283   14.27365971897120
H         4.20218774187215    2.37983304112987   14.83469158352123
H         4.21320050735281    0.66654748208766   14.42421821000045
H         2.67737125358760    1.50275839067746   14.68777657182613
C         8.61342609419661    3.80949966676449   13.82649145785353
H         9.55194373732188    3.49607092937039   14.27985824187161
H         7.97934478332790    4.22293741247056   14.60844197798065
H         8.82877952033620    4.59836799362932   13.10829858097806
O         6.55910223337867   -0.65031863325771   11.83622820771213
C         7.74403430462444    1.51089984473111   14.18042412503390
H         7.18374802386022    0.67883215268464   13.76711329157630
H         7.20679296590182    1.88694016175368   15.04895776435044
H         8.71142931250316    1.14017764652266   14.51293577703487
N         6.13902497859871    0.43881648628160   11.59312442904654
C         2.90152114595199    1.74043986473674   10.61475284516921
C         3.17565451285051    1.01198723291648   11.80128631858010
C         7.92192814658559    2.61937421778099   13.13827988889908
C         6.55113843803984    3.08642273188902   12.62501056535238
C         8.84290641912234    2.12003319201888   12.02269462333717
H         8.98586314097324    2.88747060033922   11.26574874008587
H         8.42822752311803    1.23146872262145   11.55413805254266
H         9.81835053285030    1.86385485878128   12.43285127314673
C         3.18805116868527    3.11611773248688   10.86340204096914
C         2.16502531506122    1.20444583175879    9.42493304529365
H         2.49028836984126    0.19862666396182    9.16669842077932
H         2.28436215168946    1.84171368195898    8.55109682833325
H         1.09874566722299    1.15855377142116    9.65849717612860
C         2.84301200888674    4.25632026433608    9.94798701819029
H         1.78417357438446    4.50708906753853   10.04867063010139
H         3.02346714770538    4.00710803554260    8.90186112951366
H         3.42037150285556    5.14642507857271   10.19458176635305
C         3.65331659570145    4.56788084457981   12.94397232298553
H         2.66827085539013    5.03944009951047   12.95212717464563
H         4.34970556163728    5.25390952751378   12.46192173819064
H         3.96923263568510    4.43337097176055   13.97518830868725
C         5.40667098927668    1.31319505543926    8.99996726215138
C         3.56866357371926    3.25501420474977   12.22131576470351
C         6.45539513242694    3.33791340105879    9.77932067492045
C         2.87122639178528   -0.43672462095457   12.04815021493908
H         1.91032984862847   -0.53786592311075   12.55718011247774
H         3.63713433936812   -0.89254469023110   12.67440556463470
H         2.82220288167443   -0.99170172584983   11.11392289157903
C         5.52854462819014   -0.11775315838563    8.53874993875713
H         5.81538235144550   -0.16264349294026    7.48516489370165
H         4.58351385007543   -0.64819631691370    8.64310411476195
H         6.28186814442201   -0.64632734987361    9.12048742036403
H         5.94556433815867    3.20106251614797   13.52926796119585
H         6.68419919385171    4.10229282652584   12.23429510895632
H         5.63279382674397    3.93950879529824    9.39127399912037
H         7.35024792308152    3.90888227444857    9.99024905383995
H         4.65221318429277    1.87868248588789    8.44634472005598
H         7.55674144491530    1.53005145355574    9.32373182942196

