62
CSD_code = YOBQEM | q = 0 | S = 0 | Stoichiometry = C24H35NOW | MND = 10
W        -6.14339942852228    2.59389154182934   14.04171295147340
N        -5.55028153563876    3.61824572113799   12.73441120266265
C        -7.23373191271492    6.33584250023988   13.34627887528983
H        -6.91738964227951    7.35907095158789   13.15405280925395
H        -8.32100520552759    6.30481482641184   13.31206881304837
H        -6.84914389440270    5.70648803542875   12.55112019746999
C        -4.04092131145075    1.60373158289385   14.28293722625479
C        -6.69102434184353    0.27943165824966   13.59162388016451
O        -5.27129987922314    4.15942421465157   11.71028955391475
C        -5.00743457111970    2.87882314617961   16.08528410008943
C        -8.17709990394180    2.00186303312681   13.17547277210262
C        -4.06707469138208    2.79335913818241   15.05706608172769
C        -3.10034800343401    1.41636199584897   13.17884864476409
C        -8.26246620132355    1.65356083514636   14.56958939714190
C        -7.31113606099495    0.63339230657580   14.82610381629368
C        -7.38195322483262    6.74552443797197   15.79033485677101
H        -7.17851985856808    7.79760340734006   15.60013965091899
H        -6.99829753223278    6.49788595512056   16.77827635124862
H        -8.46090911974892    6.60367582718155   15.79693223353510
C        -7.20055604658266    1.13443166341517   12.57916879577210
C        -7.14523232349489    4.40611533077193   14.95968589312781
H        -8.18304792379002    4.35968879698112   14.61709422697978
H        -7.19063600024357    4.26432312668738   16.04630861938097
C        -6.72521307189252    5.86494212895194   14.71279445967621
C        -2.61517282205747    0.13744201267947   12.88743351221123
H        -2.90846171878722   -0.69815391812513   13.50862185736420
C        -5.21176312968143    6.08218232314601   14.78355739002838
H        -4.70981528149534    5.52119154507238   13.99925979580168
H        -4.81847374832650    5.77542998894209   15.74960176351963
H        -4.98251166208612    7.13760469434301   14.64627158975285
C        -9.32977862068359    2.07091897869092   15.53814331465811
H        -9.99026572671685    1.22318851970285   15.73266831076098
H        -9.93377450516308    2.88183038379424   15.13961573803548
H        -8.91107314471667    2.39470817411276   16.49080593628582
C        -1.74626146445163   -0.07759989834618   11.83493133658876
H        -1.38918691913094   -1.07724206289026   11.63075227412151
C        -9.15219001763711    2.83265782882565   12.38622202411235
H        -9.88844268563198    2.18633369278149   11.90365775322959
H        -8.63558063164328    3.40025275065821   11.61294983108223
H        -9.68399693725054    3.53678588168103   13.02219098034403
C        -7.21750189649350   -0.14611516553322   16.10716371327036
H        -7.47140943847148    0.47499525396070   16.96542485966711
H        -6.21904837150346   -0.55605529467090   16.26155618367091
H        -7.91797007863957   -0.98454056718155   16.08462673330105
C        -6.92422344304601    1.01628015341654   11.10925083194052
H        -5.92400424742442    0.62486598545118   10.93102773731628
H        -6.99948015633172    1.98704535612720   10.62202570479383
H        -7.64524748984341    0.34205410919936   10.64206179555510
C        -1.78295821667482    2.26050839810209   11.33620576816913
H        -1.45834147646830    3.09550408495600   10.73305126475392
C        -2.65086186472398    2.47829181153115   12.38731979397800
H        -2.99365805142416    3.48259497043335   12.58386821486308
C        -1.33123489572403    0.98244992000910   11.04759355243539
H        -0.65693662623772    0.81542900159356   10.22082725926887
C        -5.88193400204160   -0.95258126347700   13.33025769391051
H        -6.53987500253547   -1.73075007778436   12.93630158445502
H        -5.42231061685992   -1.33832083427345   14.23836810719093
H        -5.10347896181241   -0.77004957713329   12.59123925631613
H        -5.30859875729218    1.95842930792056   16.58775517834242
H        -4.23213480006289    0.68466187242439   14.84388809909749
H        -3.41538069294316    3.63373397449085   14.82812902806409
H        -4.98614021283084    3.74104552336662   16.73947882268119

