71
CSD_code = YOBRIT | q = 1 | S = 0 | Stoichiometry = C24H32F6N5NiO3(1+) | MND = 6
C         5.76702657801579    4.36032971263957    5.56656640097151
H         4.84181839163749    3.83686945926979    5.81531771734105
H         6.56428307855300    3.97389669118435    6.21571376961544
C         6.11678696138489    4.03571734301799    4.11399597579542
H         6.17197814763767    2.94792104663303    4.03937720736436
H         7.11003678842405    4.40377990574214    3.85551976380017
C         5.06019647908726    4.48154455364567    3.10102877825463
H         5.34459802728956    4.08768307602638    2.11594270141181
H         4.11523277287282    4.01860542029610    3.39428637024123
C         3.68902130932968    6.09223748563102    2.01948319796161
H         2.91438640656312    5.37315296558347    2.29380930607681
H         4.02197425524034    5.85448855429860    1.00024412600393
C         3.09028051413492    7.49504904857129    2.05175949076325
H         3.83436060059745    8.21226793569642    1.71554412273014
H         2.24134385492732    7.54720810577403    1.35604130933518
C         2.66297347697710    9.28301128429114    3.67700210034465
H         2.37782960612888    9.40979074175180    4.72326510911652
H         1.89848687970282    9.74633366189418    3.03576442241043
C         3.97344896035370   10.04262985295775    3.46678019271649
H         3.74417869065267   11.09288152859988    3.66008714653957
H         4.29776929577747    9.99715537123380    2.42694694652746
C         5.10235262823873    9.67288037063382    4.42867066755743
H         5.92886052356686   10.38474245398312    4.28494667037332
H         4.71624204567794    9.79662159400872    5.44167240038867
C         6.51418778605870    8.05000780287194    5.46430419761638
H         6.03868369541575    8.45199251827272    6.36090610689531
H         7.47122003665144    8.57235533857702    5.32183030565217
C         6.79495172331794    6.56098156999226    5.69000348595047
H         7.36327874005129    6.17086532994888    4.84829389668317
H         7.42031179551552    6.45797552483781    6.58655765305123
C         6.26754452104073    8.04683523972712    3.03740321193785
H         7.35095652508826    8.20880747638719    3.11856072577017
H         5.89929451707450    8.77613141826891    2.31767660918995
C         6.02971847596316    6.62324984605553    2.47950288792977
H         5.99758072658215    6.67829180549952    1.38533824052873
H         6.88936930808422    6.00597850926118    2.73118570471512
C         4.98931532279476    5.96394677449539    7.20197484173685
H         5.72940397134028    6.37789207112764    7.89348331970961
H         4.67233692099679    5.00421839405051    7.61159451013844
C         3.75434549966956    6.88718830719516    7.19680614249662
C         1.37625323235722    7.25530597430664    3.77987472730407
H         0.91407992499179    6.78516436040779    2.90430144153019
H         0.70337077040093    8.03327628877702    4.14359524959380
C         1.55514434950307    6.15969845714739    4.83565870613439
C         0.77398308714622    5.43078159577527    7.04158460592236
C         0.08283404840685    5.89247970253202    8.15948633976679
H        -0.52513691007780    6.78254506728822    8.09845229077744
C         0.20147519442749    5.22726078270948    9.36598830015795
C         0.99950438047938    4.09730297648081    9.49231618891327
H         1.10097628223002    3.59626669194346   10.44234555208953
C         1.66530824330652    3.64124530729981    8.36799704269202
C         1.55136514312472    4.28480272840479    7.14335666924449
H         2.07518441873161    3.90145597738045    6.28335755562116
C        -0.57168587793215    5.71182423200038   10.56847624433713
C         2.55691852147507    2.42930971483011    8.42440769176708
N         5.55144833668313    5.78997930991942    5.84027743986818
N         4.81122019735649    5.93639199447333    2.97160693036598
N         2.69118123900999    7.82924201509863    3.42597671035049
N         5.61142541100416    8.29422374394871    4.32893331628412
N         0.67654739335728    6.16876844279087    5.85528013411939
O         3.45882492291309    7.41393045737435    6.06543943537492
O         3.11665931767718    7.08470871194397    8.20935376133337
O         2.45529075852972    5.33577009045524    4.69597481134320
F        -0.94797122129512    6.99003989192676   10.45673373687814
F        -1.69968112231433    4.99667632878409   10.73253172958620
F         0.12310415885810    5.59771809805991   11.70170095776099
F         2.12669009971366    1.45115849697054    7.61203840066363
F         2.68895501370002    1.91000257366056    9.63876530549554
F         3.80491037670683    2.72958499398340    7.99012244383762
Ni        4.13798029625237    6.66843957139902    4.57238625898068
H         0.02687417488295    6.94302933198535    5.90899228828419

