83
CSD_code = YOBTIS | q = 1 | S = 0 | Stoichiometry = C44H34AuClP3(1+) | MND = 2
Cl        0.34072328320215    0.33207786414136   -1.01955222682736
Au        0.23742023358005    1.02159771511001    1.14203751044130
P         0.08015626620821    1.68074834178712    3.29945555257293
C        -1.34953631227110    2.58237803537530    3.74389569622519
C        -1.98416039038396    2.03859442122718    4.88952899501622
C        -3.08767472973575    2.54642565247291    5.59126290377886
C        -3.56990166664596    1.85678497398476    6.67249167638922
C        -2.97478502114819    0.65290874343784    7.08649227660956
C        -1.89609362499825    0.13380785593446    6.42001511427335
C        -1.38208852066642    0.81749018420205    5.30801663435889
C        -0.29677379822324    0.44383711082448    4.47532010768874
P        -1.77244822597004    4.11887683035627    2.98257645586753
C        -1.78058603998299    5.43249281624612    4.22625120425973
C        -2.73387819352348    6.44483809297858    4.22212508178413
C        -2.68783704489084    7.42602358664754    5.19693478600472
C        -1.70079117159662    7.39835913904337    6.16913340471756
C        -0.75737873781047    6.38212352276951    6.17864446361560
C        -0.79622495087168    5.39532665339909    5.21206013398822
C        -0.52916236223646    4.46566282783484    1.72555469245891
C        -0.69735610510238    3.91439380693267    0.45540307078805
C         0.28140173947525    4.09999210481431   -0.50506591189639
C         1.42172105007033    4.82646654061002   -0.19886110180738
C         1.58489508222130    5.37687751575445    1.06326995207314
C         0.61303334653895    5.19820442330145    2.03204089440917
C        -3.36689751616925    4.05378960638467    2.14263624440438
C        -4.23873782876809    2.98719071125872    2.32941440248024
C        -5.44877391365680    2.97324410108166    1.65748650152163
C        -5.78424191582252    4.01274381822859    0.80500893403586
C        -4.90761824995641    5.07022008904547    0.60960914600964
C        -3.69585446122135    5.09396483201995    1.27312304687146
P         0.73242627361795   -0.97044509458739    4.72032944948883
C        -0.13681961181068   -2.51707253953381    4.39661410232596
C        -1.51799128663694   -2.54933944302581    4.24107569792472
C        -2.14521991869004   -3.75660812594587    3.98643842037297
C        -1.40058834640671   -4.92063846855373    3.88484940614016
C        -0.02091719040292   -4.88498002469664    4.02655872945228
C         0.61660118334459   -3.68529123558692    4.27890728599068
C         2.08777359583758   -0.86818671966590    3.53765374018968
C         1.88957249722612   -1.37591097491041    2.25380101429701
C         2.88529070231279   -1.23711988382605    1.30287672838439
C         4.06795491030766   -0.59168669994368    1.62928354856427
C         4.26404493203481   -0.09070162720243    2.90720571879391
C         3.27593186503562   -0.22388704831369    3.86680366499988
C         1.38320474451411   -0.96529055885930    6.40823621215326
C         1.74148161423162    0.26400041713988    6.95833558375662
C         2.25544676971641    0.31716782666005    8.23995030667109
C         2.40479037458606   -0.84910361818079    8.97500748893040
C         2.03413397503402   -2.06914414305195    8.43236508746390
C         1.52151449717374   -2.13424538765395    7.14859119834403
H        -3.54038417214188    3.47592872959879    5.26821605443317
H        -4.41705586852659    2.23876235389619    7.22070241065870
H        -3.37726204081499    0.13671813419862    7.94420226668092
H        -1.43143776244454   -0.79253924436293    6.73514551240640
H        -3.51024227765938    6.45937139963834    3.47053339109274
H        -3.42663892816930    8.21257026357941    5.19850263926669
H        -1.67055804457968    8.16669805105992    6.92602965048472
H         0.00491219553703    6.35806159316439    6.94239604010818
H        -0.07683408076607    4.58603649946912    5.21897359324540
H        -1.59752209240254    3.36380798665315    0.21724822124768
H         0.15654957479245    3.66543460925116   -1.48437997328671
H         2.18423422809279    4.96773601221088   -0.94904876788051
H         2.47101335943192    5.94842502776094    1.29424318135419
H         0.73189865123334    5.63203686631984    3.01556475878831
H        -3.96694705950913    2.17562674191294    2.98932383471108
H        -6.12908532676927    2.14727946791941    1.79718752197762
H        -6.72852673079812    3.99637117411027    0.28326457193861
H        -5.16736666677619    5.87212623448256   -0.06427492429547
H        -2.99399602674751    5.90262952610230    1.11273721868314
H        -2.09177829992013   -1.63637896528821    4.31294028497156
H        -3.21693100198471   -3.78743964242924    3.86375708396223
H        -1.89468359276123   -5.85896692263778    3.68590185729415
H         0.55688043423553   -5.79179041252192    3.93438320657680
H         1.69458427937533   -3.64133804028082    4.36974332827962
H         0.97128845607402   -1.89320643204943    2.01029109382251
H         2.72864793254033   -1.62056301364902    0.30695437756317
H         4.84139052183861   -0.48235336752506    0.88496715326472
H         5.18968022189630    0.40462909079639    3.15830958321753
H         3.42697009592973    0.15833657285707    4.86719271341749
H         1.60303702844130    1.16903182641878    6.38017124623033
H         2.53619677203702    1.26712661369336    8.66859062388819
H         2.80445654037355   -0.80567128356547    9.97626585636409
H         2.14208663403572   -2.97353984101413    9.01110928234732
H         1.22174124635025   -3.08391617741285    6.72896208070451

