92
CSD_code = YOBWOB | q = 0 | S = 0 | Stoichiometry = C37H43I2NO6P2Pd | MND = 4
Pd        9.46916928466391    3.70273766581163    5.05279595158344
I        11.82981203655809    3.17143136559204    4.10740371552582
I         8.57953470275352    4.74295059133771    2.85396910746846
P        10.09370960754315    2.53877379949496    6.88182776233999
P         7.61441729241075    4.27499099855241    6.17075569453378
C         8.41583561294300    1.70950620833116    9.19089807433734
C         8.75952589554767    2.76622556768725    8.14972213095858
C         7.43240543102702    2.89604846726733    7.39099988585562
C         6.42687505332322    2.92035876138499    8.53209766207823
N         7.02615952644959    2.00829561994151    9.49491000616326
C         6.27684167875132    1.34337212467221   10.40246720744733
O         5.09366351008848    1.54576436560784   10.55560474420300
O         7.03990202519697    0.46745578383073   11.08269198161920
C         6.46920267104913   -0.30880824704978   12.16294008378588
C         7.64348017003506   -1.14435805056102   12.67590361318985
C         5.94882312431144    0.61540173875459   13.26329679539342
C         5.35603567946566   -1.21547299079029   11.63846602044888
C        11.75226935888034    3.94489596088884    8.62517984840881
C        12.97288002292811    4.27885411324815    9.18450720173394
C        14.11461123307229    3.57890643162647    8.83466344937199
C        14.03494720948776    2.54413679296913    7.91668917060619
C        12.81952419980061    2.20533367004084    7.35522835602226
C        11.66406490372391    2.89418789200680    7.71822253683329
C         9.58952454806550    0.27641627496035    5.31262813466329
C         9.72017388577687   -1.07758969097502    5.01195197201213
C        10.29815504895082   -1.92927063922569    5.93255660951831
C        10.73737520930679   -1.47844461332884    7.16591601028022
C        10.62592722152920   -0.12998201470711    7.47429410751000
C        10.08118913098725    0.75918859178012    6.53663631907237
O         8.99105299189476    1.17871480720083    4.50150328693186
C         8.71270294545378    0.81134018407494    3.15831091602558
O        10.99213750769111    0.43933595309906    8.65012726149869
C        11.65425807294416   -0.34441157570840    9.61369046220867
C         7.15272484289895    6.27927414667443    8.11459325617515
C         7.56663741684822    7.32187270250561    8.92342381598512
C         8.87598097363415    7.77414245364705    8.86643708355136
C         9.77313152061067    7.19862646623836    7.98155897287619
C         9.36444720007830    6.15388363828959    7.17247255721351
C         8.05926027098527    5.67343156920958    7.25081286083568
C         4.95657979916267    3.75208974387737    5.30529198595197
C         3.78447255963269    4.17079370762860    4.68651043084775
C         3.68014522271910    5.46835480412359    4.21676634226077
C         4.72399193877402    6.36870378696128    4.32759707073184
C         5.89321169335065    5.96258771695715    4.95406653008259
C         5.99021296263726    4.67311960518895    5.49880536186909
O         5.20135799275041    2.48869911541325    5.73746288683879
C         4.20441560478101    1.50755368033274    5.56628517733976
O         7.01530703951370    6.69640118631359    5.10189534608102
C         7.11233610687673    7.94786652868631    4.45960873564996
H         9.03314883250333    1.77238217154544   10.08884347165603
H         8.49714915847608    0.69506587321269    8.78311099911766
H         8.95628735651326    3.71643856155170    8.66556796401263
H         7.28398985878600    1.98361440625497    6.79485252859615
H         5.43075351184410    2.57196211178261    8.25666890646512
H         6.34103535534416    3.91838849348196    8.97755074463680
H         7.32129745313400   -1.76772486222840   13.50440583428007
H         8.44594859201561   -0.49275797637475   13.01202108738832
H         8.02420261983749   -1.77993517672772   11.88045270904698
H         5.60201322478715    0.02364464424998   14.10567349614423
H         5.12389723647215    1.21458451304644   12.88783401418592
H         6.74208945418653    1.27975498721841   13.60028526632722
H         5.73174257252546   -1.84168725878316   10.83158301564240
H         4.53202706307804   -0.61461653736859   11.26389170434577
H         4.99433489833098   -1.85270483966984   12.44046367605334
H        10.87469889938585    4.51772740536718    8.89413065755915
H        13.03105727803626    5.09569624093625    9.88949435174093
H        15.06675850259354    3.84644021864727    9.26799138740597
H        14.92489366781329    2.00603408052047    7.62676616419512
H        12.76612801782192    1.40826808100705    6.62688193958828
H         9.37583591064228   -1.46860843083963    4.06917311153895
H        10.39851839434983   -2.97626601373431    5.68991974769797
H        11.16301229450539   -2.17524474204834    7.86913253220126
H         8.36777854058953    1.72318830975512    2.66564433078364
H         7.92465926874601    0.05342964323698    3.11485159978671
H         9.61562096108934    0.45189822723716    2.65710984427789
H        11.91681814001014    0.34047565164407   10.41824123385712
H        12.56669094004814   -0.79043902586074    9.20799074508926
H        11.00111055305072   -1.13071452448642   10.00518874052204
H         6.12165540942780    5.95231373232654    8.12928893760586
H         6.86296426148350    7.78924265430282    9.59690366357219
H         9.19179434492792    8.58919367015222    9.50059815297237
H        10.78691066406678    7.56608536465936    7.91708551606206
H        10.06822155533811    5.72094272396228    6.44676876371223
H         2.96194933994977    3.48949885802217    4.54394588142163
H         2.76846339435481    5.77663132404532    3.72830229750097
H         4.63252679631087    7.35674878362979    3.90880023564666
H         4.62159659238943    0.58794672306869    5.97486111633407
H         3.96823864037321    1.35914914589490    4.50841214856775
H         3.29248426600207    1.76247898279780    6.11474624395787
H         8.11895372072349    8.30666141885046    4.66691029427728
H         6.38197277019521    8.65670505877703    4.86072394366039
H         6.98436975007016    7.83962056711332    3.37958650663692

