76
CSD_code = YOBXIZ | q = 0 | S = 0 | Stoichiometry = C36H31Cl2N2O3PRu | MND = 6
Ru        5.76939890464076    4.88936025960107    8.42843997237106
P         4.89944460418675    2.89357628358532    7.61250672526124
Cl        7.14497013101102    5.30497721488291   15.45614205101492
Cl       12.50173962869626    7.42949307890828    7.22301059475416
O         4.49582971503158    6.39405404289242    6.18667307563256
O         6.90924076681301    3.82657411871337    9.81869868068671
O         7.42303301844599    4.56773613356587    7.19322667248921
N         4.29908497221204    5.25345381161031    9.98141869497542
N         6.58930358222489    6.49530267436372    9.29474040771075
C         4.94953908711464    5.83982215218326    7.09002819714975
C         6.94503397078022    4.14288714209378   11.06775719220147
C         8.17318711067949    4.19238463296741   11.76440856848056
H         9.07387658740365    3.95890594961719   11.21583671279315
C         8.23634639343625    4.54000453892931   13.09344725617199
H         9.18744761803833    4.58079722610675   13.60219508216976
C         7.07099996920932    4.84660786853067   13.78100040509512
C         5.84408882078765    4.78589248196681   13.14576487441587
H         4.94186636815336    5.00633303785150   13.69930064416252
C         5.76919759130587    4.43166059170368   11.81052998402119
C         4.44260489838376    4.31546021601397   11.11652646008229
H         4.33601948392988    3.30120601200819   10.70929853201707
H         3.63227722006256    4.48527262004313   11.84005728106443
C         4.38737944293102    6.66543266193220   10.40490815313619
H         4.01924172147375    6.75101851070365   11.43889284292203
C         5.85552370661072    7.12717666372602   10.37695817799021
H         5.88810730462961    8.21908732097150   10.26555174585071
H         6.33844194637867    6.87236938783099   11.32936052617133
C         3.51477577967457    7.54051854647495    9.50934210320975
H         3.88776076127509    7.53431655538023    8.48758930278114
H         3.52071019204941    8.56514104271574    9.87241173561674
H         2.48481238245238    7.18784932304388    9.51061285523169
C         7.79859120306990    6.88423242980396    9.08986796310867
H         8.18020132201273    7.70332705798613    9.70673841084516
C         8.73319165936311    6.37197489857568    8.14361942087020
C         9.98730622225486    7.01664682376177    8.09982177189639
H        10.16312841432357    7.85731743933692    8.75508477997292
C        10.97727722361530    6.60392302540158    7.25127142262551
C        10.77034504510869    5.51309728184903    6.40011745599461
H        11.55955723750897    5.19190110994097    5.73791461859240
C         9.56894092783774    4.86641037034185    6.42027863967246
H         9.38806816283673    4.01887902120616    5.77573086137551
C         8.49699611200633    5.25334156301907    7.27788764677155
C         3.33206685274495    2.44936404838630    8.42834940925518
C         2.25707531195860    3.31896199556098    8.23650923605436
H         2.37360533732324    4.14823727895633    7.54652766139043
C         1.06161222605141    3.11008416351146    8.89792968092538
H         0.22789645113724    3.77764475326810    8.73423559880142
C         0.93338516092517    2.04118729008608    9.77302586215489
H         0.00045632092292    1.87744292583240   10.29114547531348
C         2.00301003256559    1.18750018284045    9.98415140688932
H         1.90553739795089    0.36048035700432   10.67172636702394
C         3.20131771799952    1.38994433558589    9.31905939865002
H         4.03810026152737    0.72776459791361    9.49211664608500
C         4.44421875021394    2.89718297574864    5.84553723826267
C         5.37640628299610    3.46168855574157    4.97867464041633
H         6.27635291468966    3.89862746752042    5.39363861486235
C         5.14356529048543    3.46664996287483    3.61646589044502
H         5.86643790605332    3.90932565678228    2.94726513773859
C         3.98020800092531    2.90833967303748    3.11040662670001
H         3.79413058903905    2.91583556990696    2.04653719998371
C         3.05408178390299    2.34157193298203    3.96944694895309
H         2.14722487396744    1.90551322676872    3.57579538491751
C         3.28326263048559    2.32955295031283    5.33459404654800
H         2.55154799516757    1.88792535857088    5.99693338523249
C         5.87816917409701    1.36005876069620    7.62991451703036
C         7.21662266579437    1.40227850879103    7.99873381040664
H         7.64379768485773    2.33929329771272    8.32517967128774
C         7.97774332971586    0.24609788063603    7.95652607010206
H         9.01776661062440    0.27677441099140    8.24625382322190
C         7.40943912390968   -0.94709780920660    7.54445991704217
H         8.00375580078919   -1.84871930648444    7.51417479119279
C         6.07609576493046   -0.98755424487142    7.16410108857148
H         5.63507772465604   -1.91784701954339    6.83617122497731
C         5.31083606317070    0.16197007102216    7.19829054217833
H         4.27421713435970    0.13474460536332    6.89057310799922
H         3.35989162409898    5.10165246355219    9.60328108008238

