71
CSD_code = YOBZIZ | q = 0 | S = 0 | Stoichiometry = C26H40ClNNiP2 | MND = 4
Ni        9.19416453589306    6.34804764421498    6.57445873578206
P        10.26005658457779    7.93229782277723    7.56636179782435
C        11.39493610317148    6.96013043829442    8.58942260601473
C        12.12469209275240    7.41249650650030    9.67557577836226
C        12.87216705724468    6.53240698256373   10.44384763105345
C        13.66589367797143    7.00829638444752   11.62420677405282
C        12.82361138095636    5.17819783738730   10.12052336093365
C        12.10588478035537    4.71112454599778    9.04152874433739
C        11.39917616752879    5.59865090110490    8.21481064940061
N        10.65531855903436    5.22537796169891    7.12614221892078
C        10.91509542749527    4.08308107600633    6.41541390646871
C        12.17032937437627    3.45941635975265    6.33650656633226
C        12.33952178971516    2.31588731863723    5.58742964214436
C        11.29110123006478    1.73900280027164    4.87418145972550
C        11.50958637628050    0.49397761494177    4.06680624352439
C        10.06158855329364    2.38034000982184    4.89113984233330
C         9.87419100717721    3.53192575190059    5.63648342416460
P         8.39019390201118    4.56914724359699    5.67179127932976
C         9.48936822718479    9.14869648390293    8.73394079496685
C         8.54903999099313    8.34753340776213    9.63165710533480
C         8.73876417195352   10.24853209788783    7.99133964478098
C        11.31360749836630    8.92030049396179    6.39394265701376
C        11.86216572972771    7.93002440519010    5.36781728486807
C        12.42558396390862    9.69928236332610    7.08269470356174
C         7.16519332658416    3.70281432857698    6.77129901106065
C         6.95399041718629    2.23931077680576    6.40887051554414
C         7.67548414461510    3.86773092456918    8.20195128118879
C         7.70548740439814    4.48184466065379    3.95095711493459
C         8.65703930902694    5.28481074233676    3.06669616304386
C         6.28576758832387    5.03236962540604    3.87564521868001
Cl        7.62010628568288    7.55207308680811    5.98297294200056
H        12.10820454988461    8.46116821769653    9.93888761824322
H        13.77254982507794    8.09089006540183   11.60919543302219
H        14.65823613302414    6.55899781410588   11.62609492403835
H        13.17071802863971    6.72595964410097   12.55465902335061
H        13.35445834253684    4.47091112037251   10.74299761376178
H        12.05672701244371    3.64880753423055    8.85374608800224
H        13.02042991419374    3.89965597089353    6.83610977556502
H        13.31894826258170    1.85979231517216    5.54067268208552
H        12.08143797238646   -0.23756295561864    4.63591553356184
H        12.07092931924903    0.72312065674376    3.15950978457171
H        10.56082021746699    0.04760131888260    3.77670439449866
H         9.24700660892255    1.97666871698695    4.30568442245592
H        10.28880581011136    9.58912869913381    9.34180353582405
H         7.76776875893480    7.88837354941625    9.02421605168889
H         8.07621527180287    8.99046801247798   10.37178226020648
H         9.09360049933511    7.55906392918794   10.15211298419826
H         8.19242463792189   10.86749939132325    8.70152555355853
H         9.42079726159016   10.89034673936512    7.43772252456496
H         8.02495283506130    9.81203322682333    7.29540402942825
H        10.63098195793589    9.61100102250982    5.88377107031067
H        11.03984482954105    7.34505119606496    4.93739089715364
H        12.37747312924735    8.44685409200422    4.55990736152660
H        12.56048419242307    7.23987582774523    5.84035982527334
H        13.00932818864963   10.24429782514501    6.34195428115013
H        13.09314518799852    9.02118735263673    7.61134369781212
H        12.02371045195596   10.41892079143197    7.79306857636276
H         6.22337795623547    4.25575931602687    6.66921324997191
H         6.23318877739776    1.78905004547410    7.09008053289230
H         7.89003669334242    1.68975434926400    6.49056749249980
H         6.57368052821119    2.13326405420560    5.39497694663311
H         6.94433155106274    3.50663090729809    8.92327971972679
H         8.60362517119894    3.31413797872963    8.34109716621955
H         7.87337025727098    4.92678706999478    8.40802344707351
H         7.71383129960536    3.43122375500824    3.63674158334232
H         8.33940041200652    5.25450858095524    2.02594732066460
H         9.67039158540912    4.88766349279689    3.13342617319741
H         8.66858262458887    6.32552925199081    3.39356158183275
H         5.96650813975525    5.08885855764593    2.83594865380023
H         6.24749230518738    6.03305080998350    4.30188690293731
H         5.58427684165618    4.39574115940273    4.41079418923147

