153
CSD_code = YOCCUP | q = 0 | S = 0 | Stoichiometry = C68H80O2P2Pt | MND = 4
Pt        0.40976630631199    5.28869361332188    1.81698235142744
P        -1.28318826851617    6.87625115516451    1.53650976291953
P         1.24383880091296    6.75178393472218    3.43534419967445
C         0.35745995304363    3.61575456548800    0.64962729836050
C         1.36806080803655    3.52000998550452    1.44616336043234
C        -0.40233039015300    3.11701353399686   -0.45634589246471
C        -1.64745232410240    3.65704532714022   -0.79320936943262
H        -2.04463865145530    4.47198493810325   -0.20478926077817
C        -2.36406637986945    3.16814676154749   -1.85887407292149
H        -3.32637590242791    3.58040600414993   -2.12114321498131
C        -1.85691379360236    2.12286604171979   -2.63402170226501
C        -0.61376836375799    1.58549381610054   -2.31613241656602
H        -0.18974406314658    0.78325835767426   -2.90023752361680
C         0.10060431529063    2.07762124904369   -1.24032467161343
H         1.07097671149311    1.66164371820390   -1.01210360009174
O        -2.64754021938698    1.71285670426022   -3.66857181989904
C        -2.19607873136776    0.65935845375206   -4.48131088159976
H        -1.26122558691984    0.91510582483556   -4.99138866242084
H        -2.97774780230772    0.50239088314856   -5.22322062957092
H        -2.05489794192187   -0.26173368505155   -3.90586613088971
C         2.45491309797041    2.75724832753985    1.98089168721480
C         3.43296971210703    3.34033267593220    2.78429095598753
H         3.36840595035321    4.39570512922408    3.00854389073261
C         4.47821581370976    2.59867752021864    3.29908178510805
H         5.21566421666349    3.09044613074547    3.91519494965533
C         4.56413329829826    1.23825050826850    3.02401884344015
C         3.58227309677067    0.64136666633341    2.22936238195342
H         3.65976667523908   -0.41666721334588    2.03262094287258
C         2.54649056941457    1.38509766851000    1.71531135905238
H         1.78588964754355    0.90847441758919    1.11501374533581
O         5.54700820596134    0.40552253010793    3.47667761560789
C         6.55895860486493    0.94360016884059    4.28903535365646
H         7.12856061313194    1.71833040921639    3.76457326150502
H         7.22052650308260    0.11217672590346    4.52777828254647
H         6.15260523669565    1.35893754207610    5.21757539358070
C        -0.98127720750390    8.13486326334956    2.60882943722634
C         0.19365108545175    8.06232178332017    3.52877420157597
C        -1.33717146379436    9.40633424034966    3.23704985994404
C        -0.23726694646377    9.33772932642387    4.10265805861666
C        -2.25893142668094   10.46381762027531    3.24699316112430
C        -3.36559648843162   10.53305001117724    2.38533771017582
H        -3.51620806691398    9.73523716400484    1.67336653168848
C        -4.23066920902660   11.59275227542813    2.45534339941177
H        -5.08511496804946   11.64906119394973    1.79671971374166
C        -4.00459619676128   12.60671865394909    3.38732272265550
H        -4.68841669593606   13.44143085547483    3.44359491402127
C        -2.92232525029803   12.55677269396782    4.23378443586718
H        -2.79221542824766   13.36513636498769    4.93585286200310
C        -2.00639699375140   11.49394909656723    4.20327617458804
C         0.04756820606618   10.32735085874726    5.05637208588679
C         1.14758705834898   10.26944030689096    5.92728638414008
H         1.80193267505177    9.41190557124991    5.87586732793333
C         1.37922988414938   11.28379106761633    6.81841461381158
H         2.22919627308854   11.24710373847464    7.48366430196838
C         0.51041959237859   12.37501562808343    6.86140214080228
H         0.69506717344665   13.17637882119572    7.56229092593930
C        -0.57794367716060   12.44161104687248    6.02410482861212
H        -1.22011768905511   13.30500288730302    6.09761062990382
C        -0.85912561853634   11.43080054094858    5.09217584655015
C        -2.81379670149912    7.29318123141933    0.64406666276227
C        -4.06682223902356    6.98292843235336    1.20950265956946
C        -5.20073568027501    7.52040857287194    0.60988446695051
H        -6.15990213461460    7.33716474847392    1.05201306745900
C        -5.14522474322624    8.29979223434897   -0.53096915349866
C        -3.90467960260014    8.48979424532503   -1.12139728758640
H        -3.86891202578300    9.05543403916734   -2.03360237692260
C        -2.72858664270801    7.99956860983456   -0.57514034203205
C        -4.26626194591589    6.09633904410044    2.44703891580979
C        -5.73895518114864    5.68813486460436    2.63317617450004
H        -5.80231820755849    4.96217739186640    3.44149794688610
H        -6.13878659473616    5.22157546199089    1.73558115273697
H        -6.36182789644899    6.53441562354542    2.91299544622388
C        -3.85367727213792    6.85168860427195    3.71850272314350
H        -4.31281883333184    7.83820664047041    3.74171662970378
H        -2.77645749386205    6.97331617164243    3.77732121362134
H        -4.17771263062634    6.29890069791460    4.59798165470764
C        -3.48870884102693    4.77868003604338    2.33300545677718
H        -3.71976372111039    4.14374232992199    3.18629958428859
H        -2.40590885569498    4.92116922945034    2.33066212573391
H        -3.77401886114290    4.24900952547066    1.42641051259246
C        -1.41526003132012    8.23929659976254   -1.33127799954569
C        -0.48841501264460    9.18142716391466   -0.54682065989262
H        -1.05149159936057   10.01026836461519   -0.12146789081234
H         0.27331194576226    9.58677022049149   -1.20984538492600
H         0.02238692757431    8.65899606426903    0.25879860205808
C        -0.70736055018390    6.90741724986262   -1.61390925871035
H        -0.35321804528938    6.42332990344410   -0.70283410243305
H         0.16337361248520    7.08002695422193   -2.24346727146109
H        -1.37574390411370    6.22239075318452   -2.13128173576044
C        -1.64799928778958    8.89471666314448   -2.70323340150116
H        -2.31245384290322    8.29703314016276   -3.32329673134068
H        -0.69423248083711    8.97016564394607   -3.22214472771304
H        -2.04516397436325    9.90264230874513   -2.60431145553594
C        -6.37915434881739    8.91609073041400   -1.17210153718132
C        -7.65682335398025    8.66050735624181   -0.36737675097168
H        -8.49652096490048    9.14986771442685   -0.85708567854514
H        -7.57286371438444    9.06509521141057    0.63895891792176
H        -7.87967467920286    7.59762649057298   -0.30856548512801
C        -6.18535947640543   10.43487396763297   -1.28153701196116
H        -5.32649670325142   10.68608734873095   -1.89740101425735
H        -6.03199186089442   10.86460314000714   -0.29404179197374
H        -7.06642486820861   10.89441657236571   -1.72470522536105
C        -6.56513208453407    8.31335192412368   -2.57175935448594
H        -6.67641798693190    7.23305537563452   -2.50405637594089
H        -5.71381556252402    8.52803040775816   -3.21195154838478
H        -7.45661148885591    8.72355401635616   -3.04166485438455
C         2.44671887523781    6.94952632064704    4.78819198713992
C         2.15792120531713    6.37159736977341    6.04094033979077
C         2.96760770435741    6.71276042560522    7.11795827404500
H         2.74772925793101    6.30904166618018    8.08625328245845
C         4.04514131583164    7.57241737241757    6.99910523473176
C         4.35505179943768    8.04580229757144    5.73312527042617
H         5.21219679658769    8.68590850711257    5.63412303206054
C         3.60121839475475    7.73965249061348    4.60950395727327
C         1.02902801147384    5.35651090266321    6.26927103067442
C         1.01632387905340    4.81853315876770    7.71040768484702
H         0.23665361931964    4.06380415105621    7.79495869149912
H         0.79248293307745    5.60387064212243    8.42906899639337
H         1.95950186461957    4.34244587023005    7.96896418276657
C         1.23722775354353    4.13677927643564    5.36053274862953
H         2.24038777458610    3.73364490879753    5.48284721031013
H         1.08766049032284    4.38028153283029    4.30721394330914
H         0.52060651103426    3.35889526944701    5.61605360576374
C        -0.35772014258020    5.97350156829287    6.01763088620199
H        -0.63252034856419    5.91728307650548    4.96537031403616
H        -0.38505602790571    7.01511506520469    6.33231781471409
H        -1.11377805596285    5.42716852170869    6.57784738833151
C         4.07855505604781    8.26420831246819    3.24957532017088
C         3.16895207441241    9.39515354293373    2.74963933036475
H         3.62482216870992    9.88206406553495    1.88979906101312
H         3.02082059421938   10.13965819309410    3.52946368745543
H         2.19695612768251    9.01825166133012    2.44456080506658
C         4.13422058073858    7.13069794363203    2.21777489529812
H         4.77704303258305    6.32793994319662    2.57412215644580
H         4.54093334790563    7.50494088875618    1.28027065009579
H         3.14795664181027    6.72006515551710    1.99694003163603
C         5.50384195124847    8.83936347371482    3.31866688237801
H         6.20499843549138    8.11811443289144    3.73317646407551
H         5.53990699712282    9.75830852281884    3.89925692280123
H         5.83399763467957    9.08198335335077    2.31039393986497
C         4.90610879044148    7.98783593020350    8.18259348524717
C         4.83021050473354    9.51253454755147    8.34030409543823
H         5.15507129403473   10.02329174526109    7.43779126913490
H         5.46274451649578    9.83776367470723    9.16378464326977
H         3.80609639471915    9.81165458378556    8.55358108171241
C         4.45319549271900    7.35315776816703    9.50064179335438
H         3.43237529832182    7.63913735621718    9.74377858464854
H         5.09771524381090    7.69716504272481   10.30726831437393
H         4.52091405333422    6.26838730623363    9.45835757967644
C         6.35856321387433    7.56192416913281    7.92476216497722
H         6.41199697652248    6.48679275076008    7.76517084137665
H         6.98039299632977    7.81447343285131    8.78112058565221
H         6.77075807097542    8.05759738886450    7.05030219401531

