50
CSD_code = YOCDEA | q = 0 | S = 0 | Stoichiometry = C23H18ClN4O3Re | MND = 6
C         7.53928576429730   15.16882763217220    8.39791529659340
H         6.50020877180276   15.41301988940694    8.21976291313258
C         8.41950697817669   16.13968211747475    8.83840671076491
H         8.07333452624296   17.14582833582167    9.00971686092015
C         9.74122809742389   15.78226127391627    9.06400335040919
H        10.45689347731027   16.50672984424637    9.42271873787894
C        10.12430099648730   14.47813491818682    8.83018324772400
H        11.13671171848341   14.16514216787005    9.01824714214412
C         9.17957187180659   13.55414217826704    8.37761151635294
C         9.46605340740265   12.15848225798870    8.14555603652332
C         8.86776798201080   10.08757051273392    7.81104307501432
C        10.63720293168374   11.39843628996114    8.17457748229923
C        12.01583979558655   11.64058919093870    8.32278830034209
H        12.37136885926156   12.64999051069532    8.44181230204562
C        12.88998569869415   10.59460793460186    8.30054454960177
H        13.94875434489607   10.76563991736889    8.41004154215614
C        12.41600668898828    9.26919436705742    8.13993289712185
H        13.10993036593583    8.44532890954188    8.14806118404276
C        11.09156242377239    9.03711456968298    7.97299572441289
H        10.66022054083017    8.05629678503245    7.84830526827798
C         8.06311490910344    8.88581556003133    7.65341068969980
C         8.29498415833810    7.96963777070592    6.62989905858749
H         9.07515943003806    8.15779826793830    5.90458610975332
C         7.50585645446514    6.84987654712310    6.49435661227776
H         7.70002134996815    6.18661521066592    5.66790094506125
C         6.45225688241943    6.58936324158984    7.38706915995934
C         6.25280013661813    7.50412760845513    8.43502596749744
H         5.47526572606805    7.34115009059519    9.16116793499565
C         7.03271362360419    8.62882259540438    8.55829686945380
H         6.85568688928025    9.31834690183497    9.37080054967715
C         4.42090082509912    5.40303499131256    7.99758647398944
H         4.60761657916663    5.21438109399469    9.05897336828986
H         3.81970873193880    4.58462104149447    7.60933629543090
H         3.84447736689284    6.32725452472662    7.90161363851710
C         5.87255443839988    4.55036712886277    6.18199722555711
H         5.64591517304995    4.99063213412563    5.20368834415862
H         5.23184479550244    3.68324513794259    6.32563386627421
H         6.90748415106830    4.20243989773102    6.17859131411599
C         6.63944831229382   12.51957041587705    5.84524158765006
C         4.88147897054991   13.36508700863229    7.92960568451520
C         5.31435376966455   10.73625730869297    7.51408023388072
Cl        6.58845746490360   12.07077791452845   10.12360750795575
N         7.89640675615077   13.91027146457461    8.17323666741544
N         8.41427824991995   11.32258226862596    7.89867541717223
N        10.22206143375146   10.08395954308433    7.96439645119272
N         5.66120666766828    5.48296990839365    7.26077993479528
O         6.76375853482168   12.66936094032732    4.71003178716487
O         3.96520695165092   14.02909855771784    8.11629419367818
O         4.57175856793424    9.87391991261571    7.35741637456982
Re        6.48128745858085   12.27429540934962    7.76297559895713

