104
CSD_code = YOCDOK | q = 0 | S = 0 | Stoichiometry = C46H53FeN3O | MND = 4
Fe        7.60523906917030    2.96711506187698    4.62539406224540
O         8.67920090362319    2.57676093972046    3.46349014915416
N         7.08787367515824    0.98214491017264    5.59759285098317
N         6.32749961880142    3.43510812237916    5.75512078601707
N         7.75890145993117    5.27391601992027    4.57705523347744
C         5.39211119493031    0.02050262569737    7.11342924020196
H         5.90828780503031   -0.91432578430625    6.90367476499031
H         4.34896603378205   -0.07795994628483    6.81569861974925
H         5.42089507047223    0.20332425548792    8.18685669910983
C         6.05263753647147    1.14452249440800    6.36082917549003
C         5.57284062468610    2.49144300675513    6.46432213485893
C         4.47517027173494    2.84378553964256    7.23480569598401
H         3.91494778927481    2.07336660011455    7.74007693016609
C         4.10078596487256    4.17088389550930    7.36901157034155
H         3.24191750787992    4.45008381051887    7.95734313614689
C         4.88361226800055    5.13242162457469    6.74724128385990
H         4.63885860888076    6.17593430582107    6.86311566284710
C         5.97665497423887    4.77135644760091    5.97497972985992
C         6.83765527244903    5.74253972426665    5.35711367509736
C         6.68532796844350    7.20584422705037    5.67447956093490
H         7.52105675063665    7.75971364676410    5.25192725842145
H         6.66415691725230    7.36467651577987    6.75130620250426
H         5.75860040167410    7.59357096762323    5.25360807265093
C         7.80631404364333   -0.19663781798694    5.43509891808779
C         7.69375845019722   -0.90600290221218    4.22886824844501
C         8.47876978118248   -2.03234154352270    4.04200561581640
H         8.39198888623198   -2.60240303330107    3.13071322505219
C         9.38303173947089   -2.43498974368873    5.00669664210838
H         9.99064796328761   -3.31317165658476    4.84528406968927
C         9.52335767407274   -1.70321108686273    6.17241167574279
H        10.25265283353266   -2.01716393599206    6.90212816069251
C         8.74230861144962   -0.58477489525103    6.41135685963651
C         6.72060765595479   -0.42557850443435    3.17765183713853
H         6.64581933211566    0.66815745552362    3.28105678049232
C         5.33221041132687   -1.02224627864247    3.42644044876205
H         5.37827566425248   -2.10936584038646    3.39199064651484
H         4.63419713027556   -0.68079997949303    2.66496037577233
H         4.95373126988329   -0.72336694041598    4.39985674176569
C         7.17812797614028   -0.73933167956229    1.75409197042730
H         7.07290360006130   -1.79883080146232    1.53137846229233
H         8.21672114974466   -0.45083108288517    1.61032760684931
H         6.57224983751833   -0.18507305312639    1.04041211484417
C         8.92199954145457    0.27375186848402    7.64509774021169
H         7.93705507277957    0.62809346955563    7.96433389431536
C         9.75948779836037    1.50379659861550    7.27798774820013
H        10.74434734437006    1.20058695903868    6.92901494666758
H         9.87853134341295    2.15339532507651    8.14260689678830
H         9.26419807411488    2.07031649259067    6.48329802130856
C         9.55151687745243   -0.46523216456288    8.82457129720637
H        10.59879122853603   -0.68889908517509    8.63590003014833
H         9.02371895714781   -1.39521233102047    9.02482576921475
H         9.49945919272717    0.15753197784794    9.71556643665286
C         8.72593389780077    6.03084730984819    3.92219943750301
C         8.42088497729523    6.80170783411835    2.78970301573540
C         9.44739459026814    7.47745957295404    2.14631346220643
H         9.22408249538686    8.07836142024817    1.27747636720549
C        10.75001671190888    7.39877363274719    2.59674018238815
H        11.53380525942740    7.94134557426585    2.08889743974198
C        11.05023633514612    6.60987160308176    3.69282293945374
H        12.07321414098328    6.54128229435372    4.02684056444308
C        10.05881748516254    5.91221106307271    4.36011614140423
C         7.01852678112673    6.86339978396490    2.22761400030548
H         6.36159941020377    6.25996417621142    2.86184243694645
C         6.48386618872925    8.29768873447278    2.19581384044587
H         6.53493324243154    8.75746686363394    3.17960743109401
H         5.44720413401826    8.30290488159763    1.86476883553279
H         7.06260291366961    8.90852507540735    1.50729463804596
C         6.99298947264633    6.26437897377425    0.81855372737767
H         7.56370200035536    6.87884645656038    0.12646226003915
H         5.96953645828837    6.20154939296087    0.45417730898989
H         7.42273787737578    5.26582130678468    0.82119101528748
C        10.36216202135188    5.04616873052832    5.55977023319917
H         9.65072765748789    4.20258646395150    5.53502977674132
C        11.77740874282438    4.47311192268833    5.55307778243024
H        12.00926510016564    4.02905651409693    4.58865765965162
H        11.86203885545264    3.70055904772843    6.31400344058507
H        12.51453602198417    5.24204525303418    5.77425817105286
C        10.11909180949878    5.82820425421811    6.85434840400826
H        10.75774903747824    6.70928848940192    6.88683764733575
H        10.34359018392685    5.20531523654541    7.71753795693144
H         9.08333353972680    6.14874186528296    6.92246244303369
C         9.39656343569857    2.37927618487284    2.43056575165301
C         8.75932912159116    2.33145034919455    1.12636195400150
C         7.41428426658277    2.71365885116911    1.01183747085641
H         6.89434967972428    3.06759012190430    1.89907277207610
C         6.75690262966828    2.63993377952567   -0.19722519195717
H         5.72137233830389    2.94187575455006   -0.26544817532759
C         7.42074266799898    2.18310547022865   -1.32611089040418
H         6.90703109508305    2.12720071222418   -2.27414844097545
C         8.74608137571658    1.78759110884199   -1.22510679881040
H         9.26240762301255    1.41450124350884   -2.09801436882628
C         9.41082128506549    1.85356440679484   -0.01782301836618
H        10.43209357736359    1.51126612306315    0.05242605790953
C        10.83552094454155    2.15696716120746    2.62707893312578
C        11.80379806357771    2.76498237622448    1.82731529690323
H        11.49884350138272    3.42462410988795    1.02833235296708
C        13.14591722533329    2.55524210604830    2.08172086539718
H        13.88932741797597    3.03539469939412    1.46162316670083
C        13.54319004439035    1.74239070737341    3.13200970236219
H        14.59366771220218    1.58051750984248    3.32367514738970
C        12.58726936107241    1.14558526560649    3.93908293549685
H        12.89211953669475    0.51228863805102    4.75975330607564
C        11.24465160086670    1.35409076938818    3.69453787219795
H        10.49235102594524    0.88412402222699    4.31325906446769

