74
CSD_code = YOCFED | q = 0 | S = 0 | Stoichiometry = C38H23CoN10O2 | MND = 6
Co        1.67744217212631    2.44731630085898    4.93422776277277
N         1.75852838690920    2.82180914716556    3.13576178328922
N         1.62495376527254    2.08447251553784    6.73747973310320
N         2.44989186644848    0.78241662364860    4.36262823097141
N         3.45040990653845    3.17646941393794    5.40940471462527
O         1.52352859478883    1.28771440054228   10.71955075339881
N         3.15228395813914   -0.44018816281316    2.65072655876774
H         3.35691049645472   -0.70492956592006    1.70127983712250
N         0.19572574897553    5.96256950217484    3.85049119506681
C         2.66916122130492    2.41846480725864    7.52521304208590
N        -0.02546787148397    1.65508933458326    4.97064885918706
C         3.68682042343002    3.04100766046627    6.71007344288568
O         2.13117620515105    3.73152380140945   -0.80248641954940
N         4.89744971111716    3.53308742720289    7.05293442409005
C         5.48522955825470    4.01765684776639    5.90863122204323
C         2.64070786280503    0.74388395760458    3.04712064039758
C         1.41291722244937    4.36070753772842    1.35608104793281
H         1.06191969718535    5.31468640116301    0.99493684420193
C        -1.26991641605236    1.50103127313246    2.77505049384560
H        -0.52959769303827    1.96241248706875    2.13780376751413
C         6.07553661180748    4.77045396868292    3.34157967322820
H         6.33508060795772    5.07614864084191    2.33978775449283
N        -1.61251258826027    0.68247912895075    6.25418619435081
C         2.85498655049323   -0.95582359825588    6.14808946647367
H         2.50287231476182   -0.37808354713482    6.98591592614119
C         6.70927313793510    4.62309342738717    5.67538092274463
H         7.41143443250889    4.79521986445452    6.47605752725830
N         0.87505237551251    4.19282515081912    5.00152779661596
C         1.32048847891239    4.01067572829900    2.67340672278081
C         0.79106943721536    4.75285591440578    3.79828767887539
C         1.99959946266082    3.44834472145742    0.38500413974707
C         4.85516042674976    4.16796181701505    3.56552584127100
H         4.15973379466730    3.99973946617337    2.75944618372222
C         1.54290008429797    1.52478981634663    9.51253462669029
C        -0.42421333965653    1.23598233674555    6.21744386319921
C         2.84217365626571   -0.43644795024403    4.85617088783322
C         2.28410742292021    1.92002766833914    2.28166104623904
C         0.53796015636890    1.48088083984125    7.27319279648709
C         0.09869573161249    5.00038509159075    7.26384887715024
H         0.41043107564587    4.14026077913668    7.83196622719811
C        -3.24946268274047    0.28247346063129    4.40944940457430
H        -3.99555994012562   -0.17966386523858    5.03645678512760
C        -0.13841711017527    6.20089996094254    5.16238463556026
C         3.76796542072654   -3.01071864435618    5.23438806271240
H         4.12178346668840   -4.01397530043560    5.41461126924690
C        -0.76489251964900    7.27201722524462    5.78021005126896
H        -1.09403174777516    8.13048694935515    5.21587661634318
C         3.76202382794055   -2.51652542037176    3.94607086066113
H         4.10158770809632   -3.10771889015178    3.11002367461137
C        -2.46454862647105    1.05313440998417    2.25366906724421
H        -2.65404315693448    1.16830309308437    1.19591934469901
C         2.68023288696930    2.17070244376395    8.86899187416661
H         3.52148323886002    2.44295570246394    9.48819932270364
C        -3.43955882257374    0.45335287788876    3.05670446636724
H        -4.35921606888803    0.11889117436260    2.59876226360527
C         2.42105418091750    2.17276551547240    0.94606339869813
H         2.84436111595295    1.44638763886991    0.27008674159023
C         3.29331177178746   -1.22373025681257    3.77120739842067
C         3.32033451068260   -2.24298146658145    6.31267748752663
H         3.33714240972937   -2.67271101569351    7.30206127385364
C         4.55464270324867    3.78526756741640    4.86931420579356
C        -2.05208395925796    0.72618306996919    4.96196618642565
C         0.45974592947298    1.19355217102500    8.60601179709218
H        -0.41905517340455    0.71201629502551    9.00219962067541
C        -1.05790035552136    1.33822716813358    4.14024348471909
C         0.29778262597005    5.06753134570051    5.88735369975765
C         6.98736845976455    4.99480932895051    4.37509021948408
H         7.93020374575020    5.46857576519174    4.15010863951861
C        -0.52748872085690    6.06857596790947    7.86981958105001
H        -0.69898891795788    6.04165967342431    8.93452188237001
C        -0.95108584940264    7.18541466655538    7.14473727775176
H        -1.43636856725739    7.99658962749108    7.66490153677053
H         5.28656272436750    3.53735113645791    7.98112473097140
H         0.00491084491703    6.56022964895854    3.06312105238579

