49
CSD_code = YOCHAZ | q = 0 | S = 0 | Stoichiometry = C14H28N2NiO2S2 | MND = 4
Ni       -3.03840159729195    6.55669579830742    8.36569646589814
S        -4.24775995862928    4.77369682287021    8.44726548485076
S        -4.85099248077425    7.70465808841596    8.15067089873021
O        -4.17385669142836    4.28016386552570    7.05162315613451
O        -4.91677420269286    7.91607300439836    6.68505516671995
N        -1.29483691918744    5.35682329287414    7.99647032264460
N        -1.88916717401156    8.25014134954355    7.71073269405791
C        -2.83390804260880    3.90218041223342    9.34555048828830
C        -1.61607208189631    3.97833274698548    8.42545623231459
C        -0.02024695685001    5.84897000652578    8.53792233610329
C        -0.12098974192061    7.23677584872239    9.18250576564139
C        -0.54566559996251    8.40606901873553    8.28582604183536
C        -1.32423388836968    5.40715695935232    6.51901002215212
C        -0.93581479261936    6.74520901935569    5.89662561037554
C        -1.83845830148725    7.91719840767546    6.27107343215454
C        -2.74008361417731    9.44714581928774    7.88589758988564
C        -3.92808587193582    9.21077627513541    8.81781446588638
C        -2.65874536315203    4.65317924074485   10.65370554383545
C        -3.24769114477562    2.45480116125842    9.56275333112959
C        -4.88283562200679   10.39393302769255    8.77446660775104
C        -3.52755806874453    8.84600035148615   10.23650127113805
H        -0.75253535518856    3.51192449069231    8.91565298092956
H        -1.85506498131359    3.37608779839299    7.54422968354638
H         0.75323705905875    5.84843881875882    7.76204314990505
H         0.31966583140601    5.17182320492005    9.32735229495242
H        -0.83073497621239    7.17269228753113   10.01112283777392
H         0.85770057978537    7.47949678868196    9.60458653092844
H        -0.52817859622196    9.29703275017483    8.92077898831978
H         0.19560681226353    8.56343095012807    7.49459767559376
H        -2.34819313091996    5.15948835394254    6.20805329575311
H        -0.64277453167227    4.64057477230148    6.11333925385871
H        -1.01631438679496    6.62178661912582    4.81396716872686
H         0.10887913338195    6.98002522690979    6.10730217608379
H        -1.49363127228014    8.79809050190967    5.70384130148368
H        -2.86490235204940    7.68374199251100    5.95755069896565
H        -3.15804473261758    9.73390696872021    6.91663581706749
H        -2.14793275095854   10.29570224359465    8.25032790257570
H        -1.78600335717647    4.30477029978824   11.20428215427225
H        -2.54343614259562    5.72574455081391   10.43506496330166
H        -3.54095000841608    4.52960241049950   11.27727325453655
H        -2.44147990019569    1.87928443740838   10.01771087826046
H        -4.11858105799140    2.40586228407217   10.21233105207521
H        -3.50658411378771    1.99758830464170    8.60987592737821
H        -4.38512837432304   11.31261663350665    9.08509155159712
H        -5.25979244495916   10.52766274741188    7.76250664060367
H        -5.72993622664957   10.21810282937944    9.43348031420295
H        -2.88338396680712    9.60365899412412   10.68055717919805
H        -4.41283149442959    8.72870884037980   10.85692751123255
H        -2.99389714781651    7.88327338254729   10.21859388935211

