58
CSD_code = YOCJUV | q = 0 | S = 0 | Stoichiometry = C20H32B4PTa | MND = 13
Ta        3.09110902882576   -1.90471452917388    8.89105613450002
P         4.71128769681982   -3.20181842552434   10.88696098227750
C         3.10408597591218   -4.49360507686025    5.14917001161263
C         2.52634878406351   -3.89594593990366    6.40996126862854
C         2.24738745160220   -5.63342487271884    4.59575599739173
C         1.20230694712994   -2.17350857178606    5.07189150085051
C         1.60788699406668   -2.79509556042162    6.38447862399446
C         0.31402038312973   -0.94245740262864    5.21444916801717
C         4.92174448192498   -2.08994819820044    7.71979949570254
C         4.09844220462260   -1.16063625102263    7.13905625239925
C         4.44675641522141   -0.47547818745559    5.99247512054495
C         5.69200194902940   -0.75375831897109    5.44128598474067
C         6.53280888965901   -1.69413449722933    6.02041726124653
C         6.15875045735591   -2.38176873648009    7.16899082780941
C         6.28299194830702   -2.25158811002598   11.05024393321846
C         4.45308750811089   -3.70935649990613   12.64868561252753
C         1.89360976542921    0.34699662943713    9.58617721978367
C         5.38324134106313   -4.78425035955017   10.23176361294530
C         2.01671224542346   -0.48903797469388   10.72762100574038
C         3.30505674606119   -0.27411579750312   11.26662012589841
C         3.97800615762648    0.63538142636029   10.44385288969111
C         3.10848371691529    1.02883077757827    9.42036660820135
B         1.02918888841083   -2.46940890506717    7.79734435774722
B         1.64703292488676   -3.70147372984001    8.83839963459304
B         2.73310353073496   -4.48042786720450    7.81929252485540
B         1.04222992111355   -4.17159594745264    7.30296194590357
H         3.22553997366886   -3.72783243051225    4.37916262404681
H         2.14464782769937   -6.41807278330730    5.34167863915080
H         2.11232066141024   -1.87982371093372    4.53691174881563
H         4.09960169866796   -4.88484307439486    5.37510241843750
H         0.09293916950471   -1.76872773993370    7.94012803579285
H         0.79907686894983   -0.20120464513144    5.84555459749208
H         2.70375306091915   -6.05836494073662    3.70332890939314
H         0.68737922071460   -2.91224330975403    4.44858566164748
H         1.25351512322257   -4.01701701643191    9.91273811147737
H        -0.64136142332758   -1.20497465804337    5.66099457771075
H         1.25258895949954   -5.27878692186118    4.33681188098498
H         3.79408487455276    0.25287721554420    5.52714917124285
H         3.40375933770891   -5.42909809126757    7.99016968355817
H         0.12585561637312   -0.49830003705782    4.23822237180925
H         6.01151942132899   -0.23529859141989    4.54769489617170
H         0.17893591931280   -4.87526932299764    6.95466826101327
H         7.49347167555884   -1.89601162067601    5.56658197072307
H         6.83083584276487   -3.12102409615683    7.59176607950248
H         0.98032792953926    0.54104570185730    9.04557783970069
H         6.10428217980478   -1.33691140044803   11.61032223772025
H         6.62927462084425   -1.98380251008502   10.05367994340180
H         1.19509506302672   -0.97203183298633   11.24068463866679
H         4.19203161328666   -2.84392766559017   13.25304289353892
H         5.66967711375553   -4.63732933131432    9.19410711524306
H         3.67096155675213   -0.68331900651878   12.19745971851279
H         3.63286417823325   -4.42292666746423   12.69276282469695
H         7.04171407771024   -2.84563727594530   11.55832471894479
H         4.97887047692588    1.00802391420400   10.59617221331226
H         5.35437989375535   -4.16961520772969   13.05091246666847
H         6.24223058936688   -5.11229789234714   10.81565488558964
H         4.60458008463583   -5.54183257182333   10.26711246829494
H         3.32616444032544    1.75351844759435    8.65265829593558

