55
CSD_code = YOCKEI | q = 0 | S = 0 | Stoichiometry = C25H26AgClN2 | MND = 2
C         7.65238816950760    1.32751418557464    4.39978453298459
C         8.74382929287582    0.99818359940392    5.18969305492851
H         9.10139815900621    1.66427422550975    5.95886706594069
C         9.34441902523240   -0.22390097602258    4.95592962046443
H        10.19798342647841   -0.51414465435380    5.54893293038668
C         8.87279947264247   -1.09550899209121    3.97520643584471
H         9.37383492825215   -2.03981207039165    3.82742308647799
C         7.77474148269378   -0.78355822162985    3.19693459436857
H         7.40519013303313   -1.46899868465789    2.45049676475720
C         7.16583773248345    0.44220171704437    3.42367179915210
C         5.84758090872349    2.25742581205915    3.42410719671454
C         6.95235541468331    3.57770131426143    5.15867325654920
C         5.85807504197147    4.08160050766454    5.85480540346873
H         4.91054662388206    3.55651630093249    5.82532688671663
C         6.00026893650519    5.23131886994855    6.61239730326012
H         5.15002172568073    5.62331825818561    7.14892539640974
C         7.22594749397213    5.87221408588733    6.68482743383878
H         7.33248247169669    6.76866760563337    7.27615869241104
C         8.31517612162852    5.36380506995770    5.99730254316326
H         9.27085559355663    5.86352266417852    6.04839071333394
C         8.18265118252870    4.22003113779474    5.23075341510720
H         9.02308430957264    3.83462555448325    4.67230830532290
C         5.30243484978289    0.44545128325418    1.78724055989178
H         4.75589749152386   -0.40992189382498    2.19558361119760
H         6.00817490441215    0.05043349556529    1.04956177615664
C         4.35274057980404    1.40617114022534    1.11271048047533
C         4.83418854840255    2.22363127067517    0.08412814532946
C         3.95016343792598    3.04767884254300   -0.61594082810842
C         2.60888332185531    3.11168369508823   -0.23307552958891
C         2.12289473815999    2.26932244408465    0.77070725227008
C         2.99937147276028    1.43759040124375    1.47358711659696
C         2.47656490558731    0.60080839099288    2.61409762560382
H         1.69427611195786    1.13977637831024    3.14097251913272
H         3.25278814615553    0.37619120216718    3.34074787891213
H         2.05972280401818   -0.33908724679848    2.24801116726508
C         0.65674395957891    2.27822450558995    1.09618703434281
H         0.45403458851802    3.04500761673819    1.84440705595374
H         0.32890699814521    1.31752964539100    1.48204137451830
H         0.06623441872206    2.50099969228403    0.21235362357626
C         1.67909599375193    4.11366817951106   -0.85497242210045
H         1.04582984726718    4.54122651875005   -0.08210731664303
H         1.04343886436808    3.65284486051915   -1.61222243061963
H         2.22781875246468    4.92984490918251   -1.31168234606358
C         4.44093362998632    3.84457160818256   -1.79471590363884
H         4.78719262089713    4.82982972187270   -1.47971349526109
H         3.64799846578661    3.97734598490944   -2.52550122931910
H         5.26085957029036    3.33437483596036   -2.29262634855600
C         6.30069455309268    2.22994245726826   -0.26476338740735
H         6.60683225669531    3.22066905572236   -0.58847759847421
H         6.51257859866550    1.52540970547193   -1.07165923402512
H         6.91871688108235    1.97053680504260    0.58997775612577
N         6.81260395682135    2.41971640840117    4.36686643245726
N         6.07209823237251    1.05549098418307    2.85586706091373
Cl        2.56475019251227    5.14856436765108    2.87316479285163
Ag        4.27306866003532    3.67747542448499    3.04852837462695

