181
CSD_code = YOCKUZ | q = 0 | S = 0 | Stoichiometry = C77H98FeN2O3 | MND = 5
Fe        9.40017863990396    8.31792621104672    5.77339121767873
N        11.24055108800288    8.47627733463042    8.11044446554104
O        11.36859549349595    6.73623577261155    4.26714541351456
C        12.11780982788015    8.51843417158640    9.14212524500464
C        12.85397845393525    7.36914672919276    9.45778375155800
C        13.35859505552212    5.97602737235062    7.45649016227276
C        12.26616374667975    9.70833695079209    9.86247455472898
C        13.17152608528894    9.73109958665680   10.91364875521676
H        13.29528257988344   10.64367337347798   11.47778586311273
C        13.74847430679396    7.42902008838438   10.51535488731864
H        14.32162824472228    6.54930461047325   10.76829644069399
C        13.90560993835090    8.60163636586508   11.23703250361381
H        14.60592358014216    8.63500094948628   12.05823376726064
C         9.47361744172389   12.21473602165676    9.72818575932517
H         8.51014756740352   12.38255383416316   10.18780228851035
C        12.62704234069239    6.15802457146086    8.63252884880040
C        10.20515200839025   11.09104840059405   10.07581190914587
C        11.45657819075208   10.89376405805031    9.48792317983489
C        12.02874297244606    4.01971650006205    6.94528364368779
C        13.04384124333997    4.91011487914087    6.62860883379621
H        13.59573900631631    4.77893058647915    5.71085163918962
C         9.93869708506866   13.13483434352187    8.79911099025618
C        11.34243736712900    4.19853967106340    8.13549025877364
H        10.56218547069645    3.49976499934540    8.39953986496621
C        11.16552682612013   12.89959151895648    8.20144540251328
H        11.54044894680044   13.58647381629541    7.46052174568217
C        11.93440892026109   11.79288053133471    8.53428521844356
C        11.67142922846153    2.88037709190698    6.02199665728565
H        10.87333959221507    2.29645654900981    6.49497673020285
C        10.51084807795172    8.39022040329045    7.19498684814008
O         9.40081001185650   11.25595757269195    5.77381708523084
C         9.63390286560027   10.08976136230339   11.05371523887827
H        10.35937959489597    9.28152718359127   11.19495629383342
C        11.62146048318053    5.25774126631054    8.98645113295830
C        14.48470731102420    6.91648063733660    7.08883121376032
H        14.60249506623194    7.65287276397760    7.89142168186272
C        10.84432318935306    5.42122418215727   10.27296197123669
H        11.23043435309775    6.29602017216702   10.80757413113096
C        13.26841384303056   11.57362315932596    7.85697194930046
H        13.70276287864763   10.63963725189639    8.22956247431962
C        10.60280168988047    7.35707814000994    4.86021663316491
C         9.06487395485586   14.31727797791301    8.44944260899536
H         8.55495568455564   14.63446027110015    9.36792233288567
C        13.09047014449119   11.43810344039559    6.34362698883464
H        12.36493737391296   10.65845010772230    6.11420041765422
H        14.03743527003742   11.17738626152800    5.87542127282115
H        12.73718660520651   12.36866369683364    5.90775943230144
C        14.16864755585867    7.67459652845690    5.79926518619929
H        14.04825664776454    6.98977886909256    4.96396401380222
H        14.97396318481622    8.36755320951961    5.56340457362890
H        13.24571345874701    8.24144747854119    5.90875378862854
C         9.37821140484129   10.73096357208496   12.41866368319537
H        10.29797324737987   11.15675502195622   12.81438267550081
H         9.01251114563477    9.98474141900407   13.12094751569123
H         8.63770907138018   11.52335445526814   12.34519019193511
C        15.80491617405243    6.15249091490019    6.96223981896213
H        16.01373842917862    5.60291416187368    7.87785201953183
H        16.62344991733511    6.84609789188345    6.78088684614459
H        15.76898523299412    5.44444729535528    6.13840029796933
C        14.23952851787666   12.70738917658846    8.19292776185731
H        13.86701826825678   13.65996329595235    7.82457614401116
H        15.20953220472024   12.51868530975132    7.73759494898019
H        14.37255141064541   12.78451342103406    9.27009446610267
C        11.14281998461911    3.41405481665229    4.68930455274065
H        10.28129293961481    4.05897079245779    4.85301313718709
H        10.84490124591774    2.58761644900096    4.04588985359119
H        11.90528059166478    3.99333812868627    4.17473419727837
C        11.03336210045825    4.20138483092154   11.17744785545665
H        10.62373134218845    3.30678506502102   10.71558939144721
H        10.52802851457513    4.35770440112011   12.12826822590897
H        12.09084343838309    4.03377051121866   11.37128645454999
C         9.36228466743119    5.66227362181714    9.98503885575764
H         9.23957925561749    6.53600551689355    9.34878674570470
H         8.82091374441087    5.83170778158455   10.91361690476782
H         8.91837435682343    4.80895785578785    9.47898114726210
C         7.99818028856789   13.86864913448660    7.44500577935328
H         8.47056249363232   13.48557788956681    6.54383633493637
H         7.35036706519700   14.70341473241274    7.18091905179098
H         7.38727241426840   13.07327593072979    7.86689582683324
C         9.39976743349904   10.10420779421498    5.77350104275465
C         9.83908485555379   15.51498061592937    7.90327875344888
H        10.66412712798842   15.77278990704239    8.56406030786012
H         9.17904934139756   16.37707579202577    7.82656068158361
H        10.23348939243748   15.30700338439307    6.91188068575098
C         8.35133058322670    9.47715295684817   10.48598712222415
H         7.56743083715049   10.22576791184557   10.40201344685704
H         7.99512809503367    8.67832801561364   11.13283260025738
H         8.53432191310373    9.06576797280705    9.49393806697599
C        12.86904760945355    1.95442218000184    5.80004836172885
H        13.67198435438728    2.47581944551732    5.28501455362923
H        12.57648965124695    1.09747640661557    5.19658049811948
H        13.25057139896324    1.59299708412580    6.75280968131391
N         7.55896334525112    8.47564236138851    3.43660483852092
O         7.43360206453279    6.73449947257942    7.28026817560243
C         6.68153153636362    8.51806857883133    2.40507646721798
C         5.94512929591269    7.36888119606071    2.08939979884135
C         5.44071133248475    5.97571201185021    4.09073021679003
C         6.53322794665957    9.70801221369608    1.68484850384560
C         5.62774688494516    9.73090437191861    0.63373643922513
H         5.50410804395255   10.64354307885759    0.06968070975187
C         5.05055761575459    7.42888374491055    1.03195159548908
H         4.47722844518822    6.54929178712047    0.77898135728980
C         4.89351096375727    8.60158323076190    0.31032610317659
H         4.19311557464915    8.63513843361863   -0.51079318678029
C         9.32561378023369   12.21465433068146    1.81838703001345
H        10.28897414737020   12.38250066461138    1.35855865324401
C         6.17216037833279    6.15775137752558    2.91464910958079
C         8.59407622334653   11.09090882527093    1.47093168031595
C         7.34281087695427   10.89351901567967    2.05911917245863
C         6.77049664102782    4.01931790257734    4.60177067103080
C         5.75546403799830    4.90973916482587    4.91853896430009
H         5.20363083376416    4.77856674918108    5.83633605585628
C         8.86069214984942   13.13474287253128    2.74755101874657
C         7.45694483792120    4.19836689937696    3.41168294584889
H         8.23730306275697    3.49970798609680    3.14765674622238
C         7.63384786079736   12.89959819910381    3.34522279901893
H         7.25892807271976   13.58660104120020    4.08604041977187
C         6.86496653658633   11.79283796898819    3.01255742797790
C         7.12732894174033    2.87951011907997    5.52466153286599
H         7.92541388203296    2.29561966668994    5.05163810624234
C         8.28935233656920    8.38895738493455    4.35152490415175
C         9.16523621877434   10.08964997648722    0.49294294413394
H         8.43973912714700    9.28143418275647    0.35168964690801
C         7.17791615613310    5.25762883236448    2.56080178292514
C         4.31474681563249    6.91622101522738    4.45865890945916
H         4.19703996065745    7.65289650852095    3.65631526911197
C         7.95519155086456    5.42124549561435    1.27440063622311
H         7.56904623982052    6.29599340449656    0.73973624993508
C         5.53098173215084   11.57368916770807    3.68994392212017
H         5.09648389095280   10.63979376789757    3.31729580331819
C         8.19876503419893    7.35590786265380    6.68695174565111
C         9.73474344424178   14.31692064919304    3.09751774100448
H        10.24505217450208   14.63401731352214    2.17923114604634
C         5.70912789219039   11.43801468091215    5.20325327673347
H         6.43462856810912   10.65826294736248    5.43245001602205
H         4.76222331798748   11.17734942556473    5.67160850117814
H         6.06259697522610   12.36849873814050    5.63914223249911
C         4.63101788655578    7.67383632034947    5.74847533523961
H         4.75137202249686    6.98870827349288    6.58353157898255
H         3.82587128743994    8.36687037264279    5.98466781523386
H         5.55406709624854    8.24052474453311    5.63908824849833
C         9.42089698449493   10.73087826647338   -0.87200188344274
H         8.50113095866299   11.15669022491153   -1.26769083435575
H         9.78657558427794    9.98467616314946   -1.57432028513490
H        10.16140749695653   11.52325979898696   -0.79853798663924
C         2.99446700725520    6.15232279080558    4.58503579826043
H         2.78582853177916    5.60272959468967    3.66939049349646
H         2.17590798252451    6.84594763878672    4.76618853374369
H         3.03020857998057    5.44428516481822    5.40889305533568
C         4.55996666030787   12.70760689293876    3.35421244503943
H         4.93259426945007   13.66012502049034    3.72259647264276
H         3.58999079404573   12.51895956958879    3.80962804418164
H         4.42682637763120   12.78483257408382    2.27706747534752
C         7.65563014486521    3.41218542352004    6.85786881362860
H         8.51737565302601    4.05698206527291    6.69487110487990
H         7.95314964709635    2.58523140886885    7.50080535693727
H         6.89315852129770    3.99129772039639    7.37261616605198
C         7.76639261484585    4.20135953164491    0.36992379850667
H         8.17627176672032    3.30686470485631    0.83176305492966
H         8.27157573728984    4.35776255250671   -0.58096133059720
H         6.70892420122057    4.03350065725086    0.17622767418895
C         9.43715732005539    5.66246963101851    1.56256466870311
H         9.55969472662204    6.53638351641664    2.19861006502112
H         9.97870237700870    5.83167595077686    0.63405083028050
H         9.88102948978851    4.80933856156617    2.06896133183376
C        10.80097463737025   13.86781794551107    4.10224500158729
H        10.32817735839207   13.48438360672399    5.00303351629165
H        11.44872150828295   14.70243015077635    4.36698331202458
H        11.41201699942163   13.07258080864712    3.68029646789940
C         8.96079001951551   15.51483531491034    3.64359783558094
H         8.13591506602087   15.77292345861219    2.98271774699293
H         9.62107143561423   16.37673149152962    3.72043876283107
H         8.56618590686906   15.30695728261743    4.63494005153158
C        10.44781827315875    9.47704348153528    1.06065290007580
H        11.23172670306762   10.22566395997512    1.14448003921576
H        10.80397462008072    8.67812578516983    0.41389974645003
H        10.26487825352837    9.06581263720962    2.05277684424456
C         5.92929766865882    1.95382838965507    5.74556627290356
H         5.12626975297973    2.47528806341034    6.26039325540819
H         6.22120337952139    1.09648909505413    6.34878188702003
H         5.54815739505662    1.59301708865692    4.79241868476121

