88
CSD_code = YOCPOW | q = 0 | S = 0 | Stoichiometry = C43H38CuIN2P2S | MND = 4
Cu       10.17306702636451    5.55211493741981    1.77040224098534
I         7.75995300753634    5.49055744325315    1.09866054587488
S        10.30784662678687    3.53990328407138    3.78642998721740
N        10.09523334343031    0.97329657943775    3.37194350077720
H         9.82100734601943    0.22430236524041    2.75386824508299
H        11.05549911793145    0.98696336764360    3.67562134936844
N         8.30312156031714    2.29393534698121    2.66116889006546
H         8.01060763193462    3.24507963176324    2.42893003826523
P        11.20786076262560    7.25939569180778    2.77079837400443
P        11.64424084463627    4.26008919834658    0.66183578279268
C         9.51579608470273    2.18815282742396    3.22324078898383
C         7.44907239507128    1.28573734769628    2.20497810829817
C         6.60371082457967    1.58104547535914    1.13568057847872
H         6.62362691741321    2.56714456099878    0.69875786377530
C         5.74022887738257    0.62060735530142    0.64810033300612
H         5.09308935623413    0.86127297136620   -0.18170334856462
C         5.70001115268926   -0.64190964439203    1.21827343991060
H         5.02908963795768   -1.39366685775908    0.83124704924387
C         6.50782478475482   -0.92414584490199    2.30552754270802
H         6.45879038131256   -1.89354046639390    2.77962084896958
C         7.37427332287204    0.03134734595490    2.80669136573134
H         7.95256100018614   -0.18640043836620    3.69129472053622
C        10.51035762463747    7.78762766742211    4.36798974611099
C         9.54713768415811    6.97904596530322    4.95945130384208
H         9.25746173567283    6.05553320331675    4.47761501001662
C         8.97726282339486    7.35011783210820    6.16436448767880
H         8.23053781821410    6.71911941332082    6.62269725083167
C         9.36404833032374    8.52982587512074    6.77599917008047
H         8.91876806461554    8.82249887678328    7.71563511083110
C        10.32109230800878    9.34102664095606    6.18445776957360
H        10.61854924616345   10.26279928204103    6.66318570540280
C        10.89419582211180    8.97659759361218    4.98172208329793
H        11.63697982107329    9.60971213798216    4.51583442763405
C        12.98119588357627    7.08843048813111    3.12751506347054
C        13.87630146508545    7.11021461819851    2.05825659258650
H        13.51059129924659    7.29326484585588    1.05469949670904
C        15.22510390912379    6.91448248477835    2.27743570107433
H        15.91593503278870    6.95072717861868    1.44758605801442
C        15.68848003108192    6.66279034392166    3.55909498968146
H        16.74380657134196    6.50922416256916    3.72956406084161
C        14.79773297172760    6.59705985240411    4.61738886588788
H        15.15721528004886    6.38482067990105    5.61400337732130
C        13.44666850287752    6.80436748061250    4.40656436912409
H        12.74981727430670    6.74884602131098    5.23163553009348
C        11.12271134586209    8.82897140128680    1.84345422202237
C        12.14340237959827    9.77203158383069    1.79263229376484
H        13.07653539919144    9.59566084716989    2.31032234280986
C        11.96538600515153   10.93838701415515    1.07059783230703
H        12.76040314591846   11.66959667054853    1.03419710736883
C        10.77694324101811   11.17273434118273    0.39801295247809
H        10.64787757496090   12.08521509480735   -0.16539511452692
C         9.75607232654842   10.23768914351871    0.44882793220150
H         8.82751732160942   10.41452513908352   -0.07308992935192
C         9.92849595719563    9.07055438791130    1.16830949009357
H         9.13503673515702    8.33627168356076    1.20920233451342
C        13.39649840752213    4.02501158078666    1.10750350870806
C        14.44352696680291    4.11900278924784    0.19854942323593
H        14.24437021727832    4.34966634480360   -0.83883965497972
C        15.74310215684309    3.91608336654075    0.62665139354245
H        16.55577618567682    3.98456286000336   -0.08253024088715
C        16.00585797481205    3.62319715459783    1.95466127260776
H        17.02302924495396    3.46182559347839    2.28037859721817
C        14.96565269028577    3.54660689916643    2.86659680588042
H        15.16823566937159    3.33075874327786    3.90550265275356
C        13.66608217733927    3.75434599957870    2.44737933965148
H        12.84776160766684    3.71248533976055    3.15496796220387
C        11.73600917797365    4.98008508124918   -1.00747227649931
C        11.54572897613487    6.35487149618709   -1.10434435148366
H        11.34525229564907    6.92939267613606   -0.20564846173102
C        11.59386453361718    6.98588788549725   -2.33284946036725
H        11.44060837030655    8.05333529020308   -2.39611423503727
C        11.82633438068437    6.24131242768290   -3.47726718557773
H        11.85883916631368    6.72816415504930   -4.44064412195652
C        12.00756076791348    4.86976852353796   -3.38943773512087
H        12.18294532868689    4.29044642781627   -4.28435158778323
C        11.96233075491927    4.23603455715755   -2.16144489508564
H        12.09705354604129    3.16468206482800   -2.09463525927914
C        11.11758949617531    2.55617026062203    0.29975719969947
C        11.81538548963898    1.42902292671630    0.71853731714141
H        12.77105611498886    1.53682027350767    1.21341643829211
C        11.28623468621431    0.16883098004148    0.49645159508691
H        11.83651257661792   -0.70513252825514    0.81707932369526
C        10.06051145301211    0.02418393013377   -0.13331744321432
H         9.64945866670185   -0.96085140139417   -0.29921035084873
C         9.36049454059230    1.14584222483175   -0.55080145622365
H         8.40585592981502    1.03555480453313   -1.04189760362224
C         9.88162934721819    2.40532124607846   -0.32956803490379
H         9.33541816602881    3.28395760062892   -0.64589435747424

