42
CSD_code = YOCROZ | q = 1 | S = 0 | Stoichiometry = C12H21N2NiO6(1+) | MND = 6
Ni        0.94079011386193    1.57945422474124   12.59878955154816
O         2.39716114970536    1.80436056519668   13.70546144039130
O        -0.72412118849290    1.22035925664036   11.46285915472715
O         3.56363511265833    2.39384814776320   15.45068186645666
O         0.31040093209668    3.91669969244795   12.75296863093457
O         0.78938290958933   -0.81952242027374   12.65605291011750
O        -3.42821304783670   -0.78574084922211   13.91778217402079
N        -0.31235803429357    1.26083887842887   14.10509465126235
N         2.16272182713669    1.73770503891536   11.11719081973117
C        -1.22038137171049    0.21593970083264   13.59573127294747
C         2.49632556432951    2.12548335152600   14.94994340163324
C        -0.41787576347314   -1.08718003221506   13.34540627242549
H        -0.22979072525354   -1.58876432168474   14.29843304061810
H        -1.02259411714880   -1.75372411308652   12.71908211781900
C         0.22433865975068    1.06748534102054   15.45835996382753
H         0.74230658992317    0.10745865522211   15.51198983519519
H        -0.58710653166662    1.06921773353467   16.19620674622977
C         4.09773537371267    2.63961059631063   10.06053003567979
H         4.87669203005135    3.38459339874816   10.06308190280561
C        -1.79693325536754    0.75805704609794   12.27382575431846
H        -2.34982376321901   -0.03211760563886   11.75553569529651
H        -2.49271692576919    1.57592451649293   12.49928050235852
C         1.20485569760839    2.18238177690752   15.79914091362536
H         0.73583714920818    3.15809014655615   15.64793702047875
H         1.50375074423788    2.11419300960099   16.84448947458415
C         3.14779318123107    2.63447948629151   11.06803628879777
H         3.20005613419359    3.35334776009149   11.87385840333396
C        -2.41309446892977   -0.06343046043151   14.55396658458878
H        -2.06290839689624   -0.57289823747204   15.45719444995685
H        -2.86115316497022    0.89295035767036   14.84557673530782
C         3.01580709694253    0.73257262659139    9.13269827719307
H         2.93205605617199   -0.04709767898723    8.39298357715925
C         2.10164111325829    0.79943312227760   10.16998798383958
H         1.30449412939535    0.07125166848523   10.25117394993451
C         4.03434052966641    1.67114828388817    9.07183871672816
H         4.76584035081015    1.64170085686154    8.27935359609807
H         0.96307682383287    4.31985386822186   13.33663470104403
H        -1.08083062633566    1.70028622808963   10.70893435826234
H        -0.82595439648606    2.14866801598664   14.11235213536056
H         0.33617338276018    4.41356985798973   11.93017054815519
H         1.55085875157353   -1.10731102570673   13.17141042194057
H        -3.29171562585804   -1.73387646470958   14.01367412326778

