47
CSD_code = YOCRUF | q = 0 | S = 0 | Stoichiometry = C12H24N2NiO8 | MND = 6
Ni        4.70453818134921    4.27854073458508    8.37648404478159
O         5.37782540704576    4.93966930182778    6.58488474021946
O         3.01748233102140    5.43059171456829    5.88572170639106
O         4.27703292588834    2.32766669814221   11.81116143326284
O         6.55239578247419    5.38083178720800    9.51854981855023
O         2.75991424731654    3.72530540840848    7.28849386914178
O         4.43432951793332    3.71483009195468   10.12323194371104
O         4.36230846681648    8.88120983931828    8.90956277472821
C         2.41520927876160    5.92919966733945    9.14629487954594
H         1.99479436164502    6.77219429956456    9.70712975150087
H         2.30275281881884    5.02085942259632    9.74495864382396
N         3.86002313719922    6.12965001545779    8.90498344044145
N         5.37212604547888    2.53407589130136    7.73936728092109
O         5.90686061213967    0.94925967494741    5.51627462087918
C         4.34546465523811    2.53524854710853   10.61402589894222
C         2.51758936194207    4.88694448498306    6.90110911208634
C         6.09366002843173    6.69707778343191    9.71292383839279
H         6.30337110362433    7.23183519459587    8.78318490402964
H         6.64336332675552    7.17234173043612   10.53647365691323
C         1.65866061241177    5.78073853456479    7.82164554347958
H         1.52383924035046    6.74950599739419    7.33795467530203
H         0.68758182559713    5.32200763404615    8.00182594947025
C         4.19073993460956    8.25442393118782   10.16167187757514
H         3.15040654568182    8.34379764208640   10.50054761462188
H         4.83485672258566    8.71418254122691   10.92330715626964
C         6.50642290837880    2.83230113931535    6.85569316255271
H         7.32012727350927    3.24905524215296    7.46199951981341
C         4.58163736410006    6.77358281437683   10.00374586458826
H         4.35483273130102    6.22813360542148   10.92686146412857
C         6.00448075880006    3.89733421090201    5.86802620071800
H         6.84686069569597    4.31355183497241    5.29891014047441
H         5.30123567205635    3.42447970819851    5.17337722089624
C         7.01657409114572    1.59356262479395    6.09895635636391
H         7.73064230939318    1.92464111278521    5.33343172329122
H         7.54266536059229    0.91761579846440    6.78729635411331
C         4.34368752038002    1.35931121145633    9.61692819534560
H         3.42189509471879    1.42210616885859    9.03321368448402
H         4.35053417351927    0.42946662440018   10.18471337014799
C         5.54695855023522    1.43145365081337    8.67973625208714
H         6.46571735844914    1.59407443267245    9.25407739580384
H         5.62917279177360    0.48022129802857    8.13822049287032
H         4.56861790590147    2.29783500062750    7.13876390900240
H         3.96332640565447    6.74801456570499    8.09239044926487
H         6.37344325114184    4.88065794678959   10.32989094647349
H         6.20631320044730    0.23528147023686    4.94610814338394
H         4.48758646410555    5.17764063864554    6.11373827850651
H         4.12284164758514    9.80999033210583    8.97795170070052

