45
CSD_code = YOCRIT | q = 0 | S = 0 | Stoichiometry = C12H24N2NiO6 | MND = 6
Ni        6.52768654578631    1.29636419653286    9.15979733515336
O         6.42503197111330    0.49803269271752    7.23936093347697
N         8.46319305188958    1.20117512940099    9.22485514271767
H         8.52447409927439    0.61794934767806   10.06975326760448
C         7.17990890190631   -0.43783418433531    6.80953387881148
O         7.03230822611977   -1.01290019438144    5.74991922428433
C         8.36952259189366   -0.79879630301927    7.73802337244891
H         7.97722882345584   -1.30347354221080    8.62616702284032
H         9.02724479923858   -1.48475289243512    7.20519700008440
O         6.38112350642144    3.14551787392832   10.63332941760374
H         6.36120047903323    2.46195717365102   11.32744533356560
C         9.12563838287164    0.46425312410315    8.14100407525250
H        10.14162716988139    0.19182916835658    8.46328956030902
H         9.21450296998043    1.12812720108233    7.27439854053264
C         9.17658056554326    2.45535222007241    9.50086014626144
H         8.94994871741550    3.16112072991574    8.69637680723331
H        10.25696081639678    2.25086166478941    9.48701593876942
C         8.82595826268059    3.08026874528479   10.85240056060534
H         8.72049582758903    2.29298295251151   11.60343678728267
H         9.64651936465321    3.73176698558772   11.15662237113164
C         7.54501224174835    3.91471563656622   10.82739969535612
H         7.46133476009465    4.47179681285220   11.77199196342253
H         7.57939229912472    4.62871747787726   10.00084518585650
O         6.63062480205155    0.49763547998584   11.07997867962873
N         4.59214191831699    1.20115173463852    9.09428084523300
H         4.53109681320156    0.61798789639655    8.24931426759091
C         5.87451902143470   -0.43685951310357   11.51068767941537
O         6.02264313234559   -1.01266421240848   12.56996110115692
C         4.68593933596401   -0.79867177972180   10.58109291341699
H         5.07868367944022   -1.30307297242812    9.69295226201320
H         4.02835501487155   -1.48494941632017   11.11364181125120
O         6.67424053830960    3.14552924037795    7.68596700446175
H         6.69425357324367    2.46218584917094    6.99166517375183
C         3.92946472674330    0.46411975324003   10.17791025868290
H         2.91371020239825    0.19135361335326    9.85524370793036
H         3.84007292053743    1.12797362847900   11.04448456865583
C         3.87875874338049    2.45533056200744    8.81827021961119
H         4.10528886505043    3.16104594730181    9.62283099322309
H         2.79837830026089    2.25084065359507    8.83196549851717
C         4.22947041511158    3.08029784403030    7.46678599819757
H         4.33499253649951    2.29306666332288    6.71569573935655
H         3.40892368747491    3.73181738874290    7.16258238331417
C         5.51036982075381    3.91478610335612    7.49196462115954
H         5.59405551036594    4.47194529320592    6.54741666820368
H         5.47592206813190    4.62871822625262    8.31858404462400

