96
CSD_code = YOCTEP | q = 1 | S = 0 | Stoichiometry = C46H47OPRh(1+) | MND = 8
Rh        0.08563616704311    0.00284360602738    0.12881156595544
P         0.01230703296369   -1.09524859060767    2.15632520160509
O         2.15912229134065    0.22151899936867    0.57933873450531
C        -1.59373323895709    1.52662653358322    0.38970754171399
C        -0.43433120108229    2.21213381113952   -0.00143623346455
C         0.00468935597207    1.66685515807271   -1.27949718488457
C        -0.95540886784001    0.71093414774537   -1.70792052905530
C        -1.89398048346890    0.53400440703159   -0.63657024137673
C        -2.48325094708224    1.85793966107711    1.54576783397642
C         0.18192612043896    3.41193725331474    0.63997444464511
C         1.11319762616983    2.24218606573847   -2.10016840426656
C        -1.08169668515649    0.11166515367109   -3.07022248654851
C        -3.20399468010509   -0.17119370894721   -0.81182805117623
C         0.86963350486412   -1.62812201343629   -0.76003791162936
C         0.09007081331416   -2.59771854157695   -1.50260815751264
C         0.48467540528845   -2.98989426840832   -2.78837744889833
C        -0.26885007177218   -3.89149038328986   -3.50904719368950
C        -1.42718825505509   -4.45238180621603   -2.97592871004406
C        -1.81192048566826   -4.07480317123085   -1.69287114666123
C        -1.07759868070596   -3.15529266895500   -0.97287789707826
C        -2.21950781310002   -5.44693095795538   -3.75948275053258
C         2.23579153208425   -1.65885899130067   -0.74459320258165
C         2.86963278559695   -0.64147923943985    0.01350364851199
C         4.36364527575998   -0.51673664022351    0.07913924386217
C         4.69192791655056    0.48217041542652   -1.01004822230972
C         4.65497476254580    1.84340676599313   -0.73921163494929
C         4.90240853337948    2.76446972036867   -1.73998788899443
C         5.18203316873474    2.35017234219462   -3.03717869902356
C         5.20723934615340    0.98607207463339   -3.30320144968504
C         4.95908706528147    0.06176411625083   -2.30525268398594
C         5.47464957173279    3.34644138637950   -4.11387973800642
C        -1.24237604649416   -2.31022134067950    2.67617203341069
C        -2.53396668703472   -2.20099272648738    2.17269596626457
C        -3.52429821752336   -3.07294110597351    2.58648828123683
C        -3.22930647121483   -4.06088142531730    3.51204916947878
C        -1.94666983650928   -4.16726420336713    4.02602737878088
C        -0.95347323333078   -3.29593717588058    3.61524686124935
C         1.56128768265999   -1.98249096388524    2.51994769718901
C         1.76543961747038   -3.20107403676928    1.87351712418302
C         2.94552654105929   -3.89611781501867    2.05480423671912
C         3.93657861918005   -3.37739436503295    2.87396459448983
C         3.73661885103466   -2.16928698668876    3.51997149799359
C         2.55442802332197   -1.46967394485411    3.34496181758949
C        -0.09971567442515    0.16702117563866    3.46719863570448
C        -0.97445295365635    0.06457175758386    4.54300499993873
C        -1.01949732893613    1.07071959535403    5.49337692247631
C        -0.19731419000042    2.17914022654369    5.37929272233247
C         0.67413069124949    2.28683007410180    4.30608802791481
C         0.71882913276606    1.29015948166649    3.34915990830774
H        -1.94402141420565    2.40343724730333    2.31612130839575
H        -3.30541393535832    2.48385642275780    1.19474085864835
H        -2.90718488194996    0.96440810219485    1.99998162475345
H         1.26840086105885    3.34748389047206    0.62866148323534
H        -0.10454185344692    4.30249924030233    0.07802417095266
H        -0.15320756430129    3.53119819964406    1.66682088112792
H         1.40886727718587    1.56488478151776   -2.89819294170224
H         0.77921658754601    3.17873136612225   -2.54963191240055
H         1.99047324708845    2.45492421629656   -1.49123419507989
H        -1.55825944280713   -0.86479025905307   -3.03210781383970
H        -1.70010450024296    0.76898938402219   -3.68414233279671
H        -0.11417280055685    0.00824893840859   -3.55527626383231
H        -3.81961445490611   -0.10182348778208    0.08087715534110
H        -3.74708752909925    0.30605678559722   -1.62921557565759
H        -3.06731067999109   -1.21909717499907   -1.07576761145746
H         1.37417559814164   -2.55929469646293   -3.22345078581965
H         0.04432326418087   -4.17211110765486   -4.50388972857662
H        -2.70109724653574   -4.50541722220322   -1.25528708155674
H        -1.38346429323685   -2.88128973714751    0.02734949800763
H        -3.22688478988405   -5.54610353334927   -3.36380079283712
H        -2.27457720381606   -5.15962360600708   -4.80716295518187
H        -1.73804990531702   -6.42386782560301   -3.70993716252434
H         2.81230570595555   -2.43532717197328   -1.22682169115175
H         4.66356920529725   -0.12751159489716    1.05193560660655
H         4.84297266117231   -1.47594268498596   -0.10567910901905
H         4.43729411942307    2.18159492125626    0.26389670077640
H         4.88112271088148    3.82045097967898   -1.51212135715421
H         5.42480766011984    0.64408959326328   -4.30436062294538
H         4.98546515979157   -0.99392144440372   -2.53297788653974
H         4.98420195748759    4.29571976591159   -3.91258079915984
H         6.54846697670506    3.52790847670928   -4.16449210022574
H         5.15302851617381    2.97783666434221   -5.08495136798321
H        -2.74865683558942   -1.42700511734083    1.45116586621710
H        -4.52405692847628   -2.98296897168415    2.18883663212124
H        -3.99839733184002   -4.74520484285590    3.83525878095896
H        -1.71801919020950   -4.93136167862281    4.75322803297634
H         0.04258343594293   -3.37939730888627    4.02480574229511
H         0.98717470073957   -3.60439644100847    1.23877353767017
H         3.09349547768645   -4.84253938974139    1.55712684776380
H         4.86024804123198   -3.91782650405558    3.01307963320966
H         4.50309680738585   -1.76896094512729    4.16639616255458
H         2.40412316476440   -0.53063272895181    3.85696670935201
H        -1.61885043294477   -0.79651323494857    4.64227041666882
H        -1.70020815786588    0.98677616625930    6.32676474978394
H        -0.23633029029851    2.95950887951445    6.12367910419027
H         1.31630309382818    3.15073267552808    4.21656236541805
H         1.39124004822844    1.37003515525766    2.50514999473360

