66
CSD_code = YOCVAN | q = 0 | S = 0 | Stoichiometry = C28H31MnO6 | MND = 8
Mn        4.62280577634393    4.61473104895637   17.60636814469155
O         7.90397855704349   10.32858264668503   19.62672146225311
O         6.54055207259591    9.03217776163008   20.83078188118419
O         4.29291374066084    4.54505567090495   14.10069385790155
O         7.42558286378940    3.73786695992367   17.56158985487873
O         3.21554226476353    2.16360484726956   16.83626458453254
O         4.56285707361606    4.30855029837976   20.52620166553477
C         6.03063508101633    8.72952455401001   16.29305835912026
C         6.79751074383505    9.99452825058596   16.66578680638195
C         6.02104248038941   10.85292245128218   17.65537221534142
C         5.60246166013833   10.07932814025758   18.91588503268702
C         4.83569673488349    8.81278584777952   18.47250421401875
C         4.18034023553300    7.99297620175845   19.58444162932705
C         3.05484907271261    7.17823081058717   18.95837415344877
C         3.51837569905650    6.44568173253561   17.72664813488328
C         4.75506363985007    6.72733353507935   17.11025315456039
C         5.65279060868183    7.89211100297659   17.53238591823835
C         5.06140181394058    5.98283999300027   15.90447951381861
C         4.10648406579023    5.24194371907619   15.24087808568259
C         2.65422535666845    5.39109005159163   15.63290037019206
C         2.70951209069081    5.42592942288057   17.15154445332364
C         4.69686704819200   11.00124213569549   19.75354355706522
C         6.82258667317932    9.82304762238866   19.79176117832928
C         6.92678181710709    7.32273744032268   18.17205062115748
C         5.60788549269529    4.20029388253557   13.72597308420272
C         7.61008652281655    8.76669912750692   21.72653308365397
C         1.98019378952830    6.63757979103019   15.09135895931414
C         2.68293287941705    7.67416380885516   14.49461858018366
C         2.02682721509184    8.81979169639124   14.07676365885941
C         0.66049880266709    8.94404307741445   14.25257476323260
C        -0.05036359350286    7.91088517196276   14.84066971103331
C         0.60520986413937    6.76726506189675   15.25614231999058
C         6.32518419253373    4.08565239591112   17.60054475613892
C         3.81125467343205    3.09179029404640   17.15475304505862
C         4.58664887553602    4.40522939197913   19.37728418309063
H         6.64610570348956    8.14391512429730   15.60762029317020
H         5.11359044659314    9.01162289995639   15.76629817332539
H         6.98549025930653   10.57527688617979   15.75962956986082
H         7.76683121926402    9.73969363442172   17.09280397532088
H         5.11830095987066   11.23726786726351   17.17394359769941
H         6.63830137429627   11.70306123234814   17.94948381521769
H         4.01024360494963    9.20368467330582   17.85735012014429
H         3.76562002072964    8.63833702752130   20.35575769260072
H         4.90026748807687    7.32914181985158   20.06110488076554
H         2.24556040899053    7.85155166403254   18.64687845763232
H         2.62946329661756    6.47828458849650   19.68271777796474
H         6.05447053098280    6.07775901004758   15.47469686360385
H         2.09662722184403    4.51495676822910   15.28423281572089
H         1.76140172037405    5.22597263837306   17.65010194635758
H         5.18035595569079   11.96789139643421   19.88104687972906
H         3.74643661300735   11.15619064619655   19.24705098887648
H         4.50837582192833   10.58619084417098   20.73945473762391
H         7.43915383790705    6.67557999420089   17.46178896195875
H         7.61924401970400    8.10730625695854   18.45561893096670
H         6.69085094161785    6.72917892649711   19.05353994503659
H         5.50870513139805    3.50278449081385   12.89663580344309
H         6.17831740206905    5.07433864066772   13.39627866092298
H         6.13063843643222    3.71314443330283   14.55890877885426
H         7.18117349033500    8.21162542645628   22.55673977725969
H         8.38030411902206    8.17246685705684   21.22998349129339
H         8.05621011227946    9.70053679590948   22.07415865335761
H         3.74873181320053    7.58694046901809   14.33799595926953
H         2.58771883411079    9.61708390075738   13.61042863090647
H         0.15029535448746    9.83857931433031   13.92777724502997
H        -1.11888349351453    7.99576650719513   14.97369786877872
H         0.04608147010539    5.96155342062962   15.71076971400401

