87
CSD_code = YOCWAO | q = 0 | S = 0 | Stoichiometry = C32H51ClP2Pd | MND = 4
Pd        2.00446463465595    3.77682471018963    3.56815435774480
Cl        0.82415015657366    4.71461865943883    5.32868917624898
P         3.96548742282732    3.83556241803755    4.60325169897954
P         0.25238156253355    3.50783975147861    2.22978363375602
C         3.04800717597972    3.02751738696240    2.02749914454054
C         4.40911351653982    2.72834045474820    2.15639269347426
C         5.12199746844680    2.19371328400815    1.08978414298600
C         4.49771126143172    1.94073143639186   -0.11668012630100
C         3.15502799043559    2.23524717625741   -0.26171105109520
C         2.43349505983713    2.77847693554500    0.79379980929563
C         5.12831590830668    2.97142586856159    3.46192261985544
C         0.98072031967536    3.13256858397509    0.58083884785728
C         4.56991769510082    5.56780851223361    4.79415986076295
C         4.22338405032211    6.28127280654538    3.48176580359251
C         4.55587442437042    7.76568824607158    3.58511231826702
C         6.02669063845064    7.95563984762757    3.94979110568387
C         6.35536310544687    7.24316443331409    5.25949696728215
C         6.04135155745190    5.75189836480516    5.14984744613005
C         4.13240386855766    2.92966473534000    6.20421311002739
C         3.21456946011162    1.71169838072055    6.03406906341179
C         3.15895925666499    0.87466161618994    7.30606765476832
C         2.67903848698873    1.73533721679263    8.47050256506930
C         3.60712479894724    2.93101501909213    8.65801354316316
C         3.66252526905884    3.77431004497415    7.38651173389715
C        -0.94487814346077    4.88795495037107    1.98822698300353
C        -1.93013094517093    4.70829074449877    0.83827266066346
C        -2.82874281877388    5.93970160457102    0.73510948140900
C        -1.99188960469123    7.20264682437944    0.54718315054510
C        -1.01191618477682    7.37799368674457    1.70504960820306
C        -0.10562540446710    6.15764166937427    1.81761754550330
C        -0.68382770523676    1.97581055203431    2.66973071999518
C        -1.54761673023107    2.24745491061128    3.90205305146840
C        -2.14526014077344    0.95810377724047    4.45734363033946
C        -1.04528390248374   -0.04162986583884    4.79636968553547
C        -0.22403770426499   -0.35195741293027    3.54959889160278
C         0.38887352466972    0.92875876340614    2.99499244130220
H         6.17409825732641    1.97112837412782    1.20972468011750
H         5.05499148125316    1.51994446395409   -0.94075784148019
H         2.66018069180483    2.04590466538013   -1.20513325269844
H         5.42674442683702    2.01729320106662    3.91172954059028
H         6.03998117697044    3.55485505319012    3.30147969122829
H         0.91930033534529    4.02789942390321   -0.04817312931510
H         0.43480051702144    2.32996539943219    0.07364363812249
H         3.94548818293715    5.99725924878124    5.59059542133924
H         3.14479680948270    6.14425000345863    3.26703625832413
H         4.79002076149585    5.83207322587522    2.65839234480261
H         3.92980855313120    8.22207723034372    4.35514469594219
H         4.34002826176274    8.26387447921542    2.63769106517406
H         6.25099184251400    9.02012771831963    4.04213849259414
H         6.65296477297466    7.55073190851998    3.15085016374553
H         5.76367117866339    7.67939673315983    6.06754918269249
H         7.41080704967219    7.38186595488115    5.50425361139458
H         6.67462835138313    5.31600487328884    4.37340532693154
H         6.27105266904980    5.24855278678393    6.09220126194124
H         5.17338787377349    2.60853691935567    6.35098171227569
H         3.55151107628599    1.09994026962313    5.18812610910456
H         2.20257373619641    2.08646804485230    5.80586332779583
H         4.15375441850888    0.47885250344238    7.52882304798459
H         2.48612693183487    0.02633439358766    7.16251237066094
H         2.64274137064133    1.14160949255509    9.38624469868918
H         1.67063895907879    2.09662929853634    8.25966325043369
H         4.61212319399358    2.57603522512455    8.90467668799504
H         3.25658613245881    3.54702951355246    9.48816918611680
H         2.66589903775058    4.16634769104461    7.16358239171760
H         4.33722651981775    4.61991040338734    7.54016865554571
H        -1.49335037291313    4.97376300593523    2.93560106907705
H        -2.53920627950287    3.81526612131742    0.99885503598591
H        -1.38741886447305    4.58087347418943   -0.10172807955377
H        -3.42041612910891    6.03202475158754    1.64882020738337
H        -3.52070298411971    5.82295991657833   -0.10204259918573
H        -2.64765350404407    8.07306944712521    0.48091614110067
H        -1.43575279635670    7.13194796834673   -0.39114305882420
H        -1.56792776013391    7.50028230886209    2.63696016898890
H        -0.41088928941946    8.27675510690832    1.55239185667734
H         0.51300728663594    6.07981026535959    0.91711903336708
H         0.56662484991758    6.25763689794919    2.68313252308007
H        -1.30335387023525    1.63867493084348    1.82754832586362
H        -2.35417811099667    2.93981277065612    3.64941522791658
H        -0.92287164363326    2.72203718864050    4.66790028354702
H        -2.81847808066146    0.51850547869920    3.71586544383178
H        -2.73230928927045    1.18508344770458    5.34923610729152
H        -1.48172094758189   -0.95863905188224    5.19752509361686
H        -0.39367910275146    0.38639394993423    5.56144310196187
H        -0.86859494345189   -0.80747408026426    2.79304405318417
H         0.56828996597710   -1.06503764799943    3.78697839074102
H         1.07052840880419    1.36099325616694    3.75448936620180
H         0.98138955819344    0.70686590063757    2.10176574897247

