87
CSD_code = YOCWES | q = 0 | S = 0 | Stoichiometry = C32H51BrP2Pd | MND = 4
Pd        2.06505129779848    3.80232179906270    3.58708886910088
Br        0.84521288306735    4.85331786480765    5.38941994595729
P         4.02548725964815    3.87534283499261    4.62135669835624
P         0.29884877864101    3.51700014616624    2.27291223825427
C         3.09273170981613    3.01631018475526    2.06565802060695
C         4.45758715687604    2.73828302201636    2.18768136053745
C         5.15672874330702    2.15419092496839    1.13762981717990
C         4.51546910187148    1.83779979028339   -0.04436936193995
C         3.17095096098174    2.12520493949338   -0.18582244374186
C         2.46180470720097    2.71466272110269    0.85326700058319
C         5.20472515757721    3.06874422921018    3.45703263462711
C         1.00928877851628    3.06460368271558    0.63719035824966
C         4.58802839977632    5.61512424369657    4.86618068140852
C         4.22592732122063    6.36747312395032    3.58038159502947
C         4.52011111290388    7.85450030780614    3.74071381028818
C         5.98622605484607    8.06683816607959    4.11122169171962
C         6.33589720005656    7.31080267241608    5.39073518151051
C         6.05630613731099    5.81797617610981    5.22407037130983
C         4.25085297357783    2.93412553493828    6.19704901286045
C         3.84069641754408    3.72004617399702    7.44036326630644
C         3.89866789735199    2.82076559071513    8.67320927021810
C         2.98835954229196    1.60912742965301    8.49933912360198
C         3.39931626549660    0.81121730609520    7.26549111058949
C         3.35053723359933    1.70335811760295    6.03168064474097
C        -0.68776421390587    2.02484839630406    2.74378335597106
C        -1.65183814119278    2.33839390194618    3.88790767764709
C        -2.31105677517049    1.06459584387674    4.40917199229680
C        -1.25526400562418    0.06771067534967    4.87509970574557
C        -0.31673775692513   -0.27726067003519    3.72328138382355
C         0.34853460051149    0.98619647814142    3.19082239415955
C        -0.86410569537643    4.91875030249806    1.99075932788836
C        -1.87388903994111    4.70694352290546    0.86790934259812
C        -2.75570087831346    5.94709782499780    0.73263337583265
C        -1.90406472871941    7.18737479306164    0.47387404159240
C        -0.89388327506369    7.39325236323785    1.60008484234347
C        -0.00624444044693    6.16255812746201    1.74210697524073
H         6.21204956565877    1.94438905274316    1.25246917031914
H         5.06191899763249    1.37710442605889   -0.85424516624886
H         2.66387229220722    1.89387255486621   -1.11328277182679
H         5.60578212728604    2.15698491257719    3.91462975966504
H         6.05333090870396    3.72566799454572    3.24055153227295
H         0.94537330108234    3.93035284970675   -0.03254945269941
H         0.45554395722532    2.24164653430192    0.17202357600170
H         3.95902090014586    6.00594070306616    5.67998308378677
H         3.15201536879413    6.21636299815093    3.35333573707448
H         4.80475030340240    5.96411321457020    2.74162335177870
H         3.88334906224242    8.26386941789449    4.52825565786458
H         4.28974362746197    8.38295196932888    2.81326667076847
H         6.18319982353985    9.13204407919773    4.24640056017635
H         6.62133090193811    7.71119247150037    3.29571989715320
H         5.73676643176225    7.70064173582452    6.21683081358310
H         7.38869434818185    7.46402404524744    5.63809000377387
H         6.69674271024619    5.42578002183905    4.43000700503185
H         6.30160425426318    5.28495754297253    6.14588899362319
H         5.30269497859669    2.62466952833434    6.28079025499314
H         2.82213920971965    4.09548884199535    7.31605222560932
H         4.50311402805615    4.57656414005428    7.58378711151208
H         3.59313514702283    3.39091664983718    9.55208742858252
H         4.92708652027628    2.48360003198509    8.83191146897952
H         1.95797619592746    1.95087113013078    8.38270531210892
H         3.03632547401574    0.97497895184692    9.38673470575728
H         2.73311101513427   -0.04377566840891    7.13137511424724
H         4.41437886419051    0.42704577713736    7.39858531307220
H         3.64541955350720    1.13812162313763    5.13834765015498
H         2.31644688500695    2.05590818636488    5.88733057479694
H        -1.24272363439514    1.65262773743234    1.87129945208344
H        -2.42346536801209    3.03400163619394    3.55041149696249
H        -1.10078184312037    2.81732751673528    4.70293949529340
H        -2.91188698263881    0.61223437255374    3.61528011498315
H        -2.97966646391686    1.31455536659630    5.23481920303836
H        -1.73478588146824   -0.83793515843483    5.25164730119418
H        -0.68030399782773    0.50932313552981    5.69210182108834
H        -0.88577780083669   -0.75443734307093    2.92093658698125
H         0.44725783745564   -0.98309486615366    4.05648796096223
H         0.96365723392370    1.43523317532158    3.99513301814909
H         1.01588895639666    0.73881393612318    2.35785638381717
H        -1.39557110804360    5.06143438420883    2.94210343949030
H        -2.49318374186689    3.83073994583701    1.07523751219664
H        -1.35149084924348    4.53320175075232   -0.07644553259211
H        -3.32480250112049    6.08663548007025    1.65458611600817
H        -3.46784100188446    5.80646349375283   -0.08358279226017
H        -2.54733786637239    8.06512173242261    0.38780015114244
H        -1.37215944776956    7.06981202732779   -0.47391134681572
H        -1.42388530048332    7.56360110455633    2.53950753732818
H        -0.28084908313600    8.27338106674781    1.39567780564794
H         0.58608554655604    6.03375788378471    0.82986194269095
H         0.69250780369579    6.29541736262905    2.58183143824611

