63
CSD_code = YOCYUL | q = 0 | S = 0 | Stoichiometry = C22H26CdN8O6 | MND = 6
Cd       -0.61776725110984    4.03166001461489    0.31815411253339
O         1.14529478672649    6.69489291016790    1.42361946087194
O         2.78815883538342    5.99822141608175    0.24931951646968
O         0.79477805631222    5.83803963962557   -0.49812936398481
N         1.59318625162653    6.17839667519086    0.40263197216505
N         0.92052654415364    2.93985785514456   -1.20357972181520
H         0.41307823886783    2.06968914731347   -1.32758967438623
N         1.10265631393444    3.51577671226886    1.51241073548030
N         3.31064035224994    3.41959289867103    1.60172771235660
H         4.25915137659455    3.36956835761292    1.27004631419103
C         1.43111403237486    4.78794673585272    4.96193936337291
H         0.88419441569680    5.13708804162980    5.82481795889718
C         3.58988267658491    4.31573373115649    3.95561792273009
H         4.66767152077771    4.29493758339555    4.00216464888978
C         2.90500542786943    3.91347606533746    2.82071701788215
C         2.82669345144930    4.75516898123184    5.01916763692462
H         3.32086667998393    5.08420071728120    5.92092480009437
C         2.19710552833442    3.22383911200659    0.85526128472596
C         0.74222806471911    4.39129451847074    3.83529440100236
H        -0.33572634007273    4.39932239846993    3.77290421993960
C         2.20163188394929    2.66942828476218   -0.53323648193352
H         2.36338998820873    1.58220636530137   -0.44457037580693
C         2.66022901367966    3.18655584322411   -2.81775182692533
H         3.11798234329959    3.86382745498796   -3.53450752542338
H         2.73186084077723    2.16588937130188   -3.20112843551296
C         3.28919963412430    3.28367985347405   -1.43277215613599
H         4.23740270579372    2.75389096611486   -1.35489183855779
H         3.43269644856025    4.33087433207622   -1.16185381528412
C         1.20941386388393    3.55187718241842   -2.50858191729869
H         1.12022443641462    4.63522932556817   -2.40332873094421
H         0.50154187184775    3.20693235824550   -3.26328595999428
C         1.49769797246520    3.95574646886987    2.75437437277986
O        -1.35637826050655    1.87158930552526    0.15107447328110
O        -2.66255902585245    1.08479673282518    1.63511859037465
O        -1.97990523346186    3.09509797511525    1.78218935695826
N        -2.01095166294901    1.99946244847410    1.19891600626589
N        -1.56959684891101    6.00555856876001    1.12789525428156
H        -0.72931485615500    6.44116312381314    1.52235757280270
N        -2.06520067316608    4.64528840216037   -1.19949977412195
N        -3.03570253859745    6.32089934996629   -2.26648547132204
H        -3.35227993775258    7.25583913030223   -2.46295226744695
C        -3.09141413573766    2.70796718604859   -4.17329748012670
H        -3.09049054407054    1.72779621536846   -4.62558485574358
C        -3.74246098540892    5.04073788871378   -4.33603181380376
H        -4.21551128676756    5.85242620889260   -4.86715952590736
C        -3.16201922225022    5.22617616659538   -3.09169260340677
C        -3.69087816889185    3.76481703732713   -4.86288135517036
H        -4.13186134703481    3.57622277832725   -5.82991381121215
C        -2.37143508073006    5.91390665973206   -1.15219966165888
C        -2.51164037961523    2.88532947583156   -2.93398202966278
H        -2.06634952271878    2.07426313185171   -2.37866016972175
C        -2.02082712218449    6.81219393614716   -0.01031962639626
H        -1.20104573487491    7.45850481594563   -0.34739782318134
C        -3.21750888800237    7.46027339682437    1.98945634566520
H        -4.20557628732615    7.56093658441851    2.43298487390486
H        -2.54554684364594    8.18126694967186    2.45753953705377
C        -3.23152007208616    7.65286239962577    0.47391276426533
H        -3.14345710302074    8.69857310885757    0.18410969807264
H        -4.15852943837889    7.25263951772026    0.05927510632348
C        -2.64140801154237    6.05053543428317    2.12045889255741
H        -3.39738695551466    5.30126300434040    1.86796615520728
H        -2.25304007608401    5.83284622728402    3.11363332068684
C        -2.54301372222817    4.16632552133863   -2.39471530653481

