40
CSD_code = YODBAU | q = 0 | S = 0 | Stoichiometry = C12H22Cl2N2OPt | MND = 4
Pt        5.50758130730702    4.21080071148444    4.79042067823512
Cl        5.66748925775245    5.47012281546672    2.95755947072589
Cl        7.31051014279277    3.04363115697421    4.14955948041444
N         5.16253953396458    3.12221200333402    6.40152039854679
N         3.77760099656769    5.26677834901323    5.59452464439604
O         5.64660720616337    1.85412699160779    6.47846116752495
C         1.69375346858958    4.30232017672117    8.04926696161198
C         2.69155483897023    5.42881993898784    7.89193006893205
C         3.94580712860573    5.05325528838035    7.06017056069996
C         4.34668378447543    3.59916912110934    7.27004704384990
C         3.77893093876759    2.88744618802253    8.46614342270119
C         2.26595044770285    2.94276574965488    8.36479743761905
C         1.40658399372784    3.64944646130917    9.38098081524496
C         0.00616781535804    3.09830103869830    9.56089451395929
C         1.96635980674939    4.17564925094063   10.68191629865956
C         5.14020016062235    5.88795212050768    7.56079472455791
C         2.61203813451867    4.56796779465776    5.05063729127736
C         3.70565536668527    6.66885140374381    5.19014278343807
H         5.33290031901070    1.38893597037240    7.27477276503871
H         0.85839653745573    4.33704952288247    7.36134060334999
H         3.03080413614681    5.76059226287077    8.87266020188743
H         2.20437919946858    6.28655741952315    7.42875540608671
H         4.12551031421642    3.39173262688862    9.37048979697355
H         4.10141241247951    1.84613585481961    8.53604740442467
H         1.83254171811834    2.08402278567273    7.86610049124607
H        -0.66493022124127    3.88132906325224    9.90916850643610
H        -0.38507247435610    2.70278272711375    8.62695922143379
H         0.00644065257509    2.29776249031011   10.29846881534884
H         1.31760067885605    4.96109142253283   11.06623349439807
H         1.99849111694104    3.37328559411869   11.41741067594670
H         2.96749346790706    4.58571172790037   10.58874121756580
H         5.98665732113826    5.77133674787885    6.87731726888691
H         4.88226620702773    6.94017714291979    7.64045692379065
H         5.44775761886279    5.53765388855245    8.54406094239280
H         1.67851214803420    5.07461452235214    5.31781275120173
H         2.69402854510804    4.55256971552788    3.96301680525414
H         2.57383922276910    3.54165452043232    5.41333689210505
H         2.83609519527303    7.17754880456142    5.62004524638978
H         4.61294901114281    7.19864818801694    5.46342352783337
H         3.63421254374693    6.70059044088674    4.10391327960884

