43
CSD_code = YODHEE | q = 0 | S = 0 | Stoichiometry = C18H17N2O5V | MND = 5
V         5.52692252991599    2.96111106203371    2.32030592040530
O         0.16711579421630    2.98105365887269    1.91527778061080
O         4.09968396055342    3.83029555341007    3.11064174469988
O         6.43803768334105    2.89105700560692    0.84046058954251
O         5.47463370292954    1.54054928731436    2.88214796258725
O         6.51605556829020    3.95003956111161    3.13785828613179
N         2.77516868292643    2.88183980107109    1.57490450453983
N         3.98111601757906    2.57311537518255    1.06063059915337
C         2.91833927517374    3.51914030789621    2.71310796551183
C         1.74293197589079    3.89295877079802    3.50257320836870
C         0.43391056508643    3.60798748138551    3.07000587795954
C        -0.64028192180325    3.99667383351898    3.87180530920265
C        -0.42880726549522    4.64307177140582    5.07106440162674
C         0.86232000347293    4.91885345998250    5.50402439916750
C         1.93370428541501    4.54526228667723    4.72349118248926
C         4.01884475142603    1.85529426213235   -0.03469056272591
C         2.73736912399839    1.36896219384445   -0.64534238706783
C         5.25999217740256    1.52709865872159   -0.62350948516556
C         6.43893642436554    2.05803768223028   -0.14866708923913
C         7.75695928461368    1.70791267184869   -0.71381942709916
C         8.86343147628886    1.76498574157612    0.13545561132782
C        10.12030092888435    1.43258864711588   -0.33129291869356
C        10.29069216594833    1.04887856508047   -1.65207144632417
C         9.19862337852989    0.99936367844615   -2.50368842810218
C         7.93682235150503    1.32477869494136   -2.04162281233995
C         7.13879203764704    4.55397106756865    4.18400863558407
H         1.02049087889548    2.75795588422465    1.48116930908890
H        -1.63675352366723    3.77278418812512    3.52481930676107
H        -1.27427944199112    4.93366760393991    5.67662709001617
H         1.02406725925901    5.42092846141703    6.44540341660184
H         2.94845365515102    4.74309703552716    5.03808437116519
H         5.26919191913645    0.84967872142939   -1.46138036641308
H         8.70943721489186    2.05514952855182    1.16800693316146
H        10.96997151791230    1.47116187112991    0.33416054060054
H        11.27316757556429    0.79091212503836   -2.01843667072574
H         9.33269837460711    0.70781704402290   -3.53496447570417
H         7.09552808086496    1.30281503882959   -2.71726517602773
H         2.10413552720190    2.21745623817342   -0.90231843688220
H         2.19672181650786    0.76549529025859    0.08289028360115
H         2.92944871504669    0.77797157737749   -1.53516390175535
H         7.76730770662488    3.83359463422340    4.72973811782591
H         7.75921550042854    5.39377122384303    3.83670062361911
H         6.37218226546440    4.94646245411561    4.87296961291592

