40
CSD_code = YODHAA | q = 0 | S = 0 | Stoichiometry = C16H12F3N2O5SV | MND = 5
V         4.84200886710889    1.42323113446659    4.59548326031548
S         6.00992219354165    5.89688374759249    7.64493578635571
F         6.14569607016393    4.63317533722980    1.42702309732319
F         7.24130383902951    5.85808290447952    2.80811342916446
F         8.12794437735059    4.06191673859787    2.03908943167332
O         5.27244458848900    0.29089280792572    3.21363571499301
O         5.56899165817452    2.39342619897972    5.86098558113848
O         6.96201641290391    1.74050842224528   -0.36772266280807
O         4.48146909472143    0.13627256267336    5.49548702445611
O         3.60442449150572    2.17380689800395    4.10883842827683
N         6.05003693548702    2.54720342086398    3.40635156334047
N         6.27118492342123    2.01813143263691    2.20000708834974
C         5.77228429593207    0.79894534828019    2.14618551393012
C         5.81255637693799    0.03278713734483    0.90629131484404
C         6.39659323947706    0.53599203592077   -0.27380828061461
C         6.39542418255775   -0.26992788672691   -1.41677774633030
C         5.83165238557144   -1.52589688677517   -1.39928575516002
C         5.24800131006308   -2.02102218020415   -0.23718014330364
C         5.24133785823568   -1.24629614496491    0.89878142015320
C         6.39168621584219    3.79125819362282    3.63614028119381
C         6.22990345471348    4.40636894368066    4.88568971463102
C         5.80286002349232    3.65917244811804    5.97316143353902
C         5.62491501009079    4.24386995190051    7.28365806849099
C         5.49355871064754    5.69537165609266    9.26580964750954
C         5.04633521298847    4.43301225939991    9.51899656198734
C         5.12014437223587    3.60163147683893    8.39127258912599
C         6.97186169341970    4.58801930536880    2.47983981906232
C         3.81240261789716   -0.95548626172657    5.95426428313707
H         6.87966476027306    2.21847956380203    0.48136188657028
H         6.84809492934791    0.12905010050362   -2.31062529480619
H         5.84137629833341   -2.12804743442845   -2.29537397516686
H         4.80347377998863   -3.00403105140132   -0.22884106935639
H         4.79102125701946   -1.60324028439571    1.81420382160794
H         6.46659408114334    5.45176992509939    4.99861854031842
H         5.54857141922631    6.52484260079899    9.94286025214414
H         4.67790531381406    4.11377544686000   10.47704011885991
H         4.81026643745196    2.57072227739341    8.36505715024555
H         4.35755429830227   -1.42609294008806    6.78550530827514
H         2.80078512164124   -0.67458745460881    6.28420585327668
H         3.72603189145815   -1.68517175140213    5.13222094325673

