50
CSD_code = YODJOQ | q = 0 | S = 0 | Stoichiometry = C21H23Br2PPtS2 | MND = 6
Pt        2.48360225422142    3.87931023765876    7.62754677510634
Br        0.77967355654377    2.52734027217444    8.81635516474016
Br        4.06233717702142    5.38293734795140    6.47112777433536
S         3.78670849456266    4.28523606163107    9.93463452706187
S         0.96844427218722    6.11575739289750    8.20433226342397
P         2.95433271779806    5.89930606571228   10.67886432351291
C         1.56718985574632    3.55360596452454    5.80261386065540
H         2.25257356820747    3.04963756134436    5.12111602962652
H         0.66830078968016    2.95037097500272    5.92734910149994
H         1.31321057558134    4.52671442727861    5.37932245814505
C         3.62686725013035    2.19221950125988    7.30713494090961
H         3.00245048024105    1.36310314084895    6.97554742980088
H         4.40487655997024    2.40533659515862    6.57551938350836
H         4.07184698049277    1.96166083110552    8.27717727051934
C        -0.46121764213791    6.06456737675641    7.08976389513387
H        -1.19229670629614    6.79909019271651    7.41519702562911
H        -0.07615891150953    6.34470135354859    6.11326649278787
H        -0.88195531018533    5.06344754727098    7.05550859445526
C         3.28684641966729    7.44824531222988    9.77843660460290
C         4.49704669745438    7.55305045146286    9.10672980254589
H         5.18390540472119    6.71760625614296    9.10500017028841
C         4.80178750335297    8.71609436560714    8.42317248365739
H         5.73280962212554    8.78997788166117    7.88355060805009
C         3.90353462850655    9.76948958923440    8.41982700053987
H         4.13642315992262   10.67424907617078    7.87867068604327
C         2.70023133856463    9.66712162693634    9.10166062374772
H         2.00135229895772   10.49083158317490    9.09525802256115
C         2.38543708814788    8.50713523751000    9.78283178408302
H         1.44051823464314    8.41383620302920   10.30301073367859
C         3.61365552748506    6.21879726252720   12.34315865043319
C         3.38360272728231    7.44736920116481   12.95313454606968
H         2.80912268117649    8.20607243328654   12.44054162662351
C         3.89444882129151    7.69018837071719   14.21399224647325
H         3.71727839419596    8.64311913424448   14.69013328060913
C         4.63465500132418    6.71470396147342   14.86459969098537
H         5.03298037391646    6.91013991992800   15.84893083905824
C         4.86717638025724    5.49369943403966   14.25402490189775
H         5.44542396253621    4.73490805725985   14.75926070487578
C         4.35918096740618    5.24368711374818   12.99151761787686
H         4.53730695259370    4.29606215393912   12.50225366926357
C         1.15298094825947    5.72455516994654   10.88852851758911
C         0.66741318035500    5.39145264444754   12.14789050038872
H         1.35189865096906    5.35822732510588   12.98415438087449
C        -0.67153594438439    5.10424003478433   12.33095276593866
H        -1.03840881579358    4.84753765765479   13.31236880281955
C        -1.53002834838739    5.13028940922010   11.24530012609239
H        -2.57483431940186    4.89323708535457   11.37307930831686
C        -1.05888753582901    5.43948836404061    9.98249000647175
H        -1.74367315349022    5.42327313307595    9.15158815550685
C         0.28426518993410    5.72817170605003    9.79017383118771

