47
CSD_code = YODLOU | q = 0 | S = 0 | Stoichiometry = C18H25ClIrNS | MND = 8
Ir        4.22696984170957    1.67296432263802   24.52679251371190
Cl        2.12789887696951    0.93261564648927   25.24509857745412
S         2.04150706369837    5.15300080425217   22.71970834713495
N         3.47185713960827    1.46134585437854   22.61517346028982
C         2.78937106362802    2.46552816548850   22.14585389809342
H         2.25422722666695    2.42264189728671   21.20509194471645
C         2.77640912200024    3.59916942157737   22.97325301737499
C         3.40774057021656    3.48691116955798   24.21109787636763
C         3.25759108272120    4.68008494347562   24.95053088536279
H         3.63645315713847    4.83099190105923   25.94530209501969
C         2.56174457999174    5.64248407992859   24.28140686091207
H         2.31991379740770    6.63204511988102   24.61936480401024
C         5.35706246980840    0.10095953033860   25.84347102677260
C         5.30675244962010    1.43093512169683   26.42814058018464
C         6.07324608762026    2.29994926810598   25.60001198872541
C         6.44210196897301    1.55720343931902   24.43028696605679
C         6.05675846889900    0.17782807280230   24.63777539138018
C         4.80324844535757   -1.11342427655334   26.51143243465853
H         4.97400559984058   -2.00597658924786   25.91466061916763
H         3.72976012208555   -1.00236221804359   26.66743147390070
H         5.27340418297208   -1.25002414183987   27.48607574216286
C         4.82966533613269    1.70042398433042   27.82098367493840
H         5.55254419969111    1.31827551173710   28.54480287945685
H         3.87586837486679    1.20759828751118   27.99729246940288
H         4.69990587459117    2.76590845907888   27.99329806962927
C         6.55562346992151    3.67672635371782   25.93407523198912
H         5.98224778749417    4.10456692136228   26.75153709761877
H         6.48357363127558    4.34316795024688   25.07712733054808
H         7.60217580429609    3.62767247502446   26.24049440018214
C         7.39657939821045    2.03095259478055   23.37986797242694
H         7.28085085537488    3.09773542877655   23.20268151651840
H         7.24124959431581    1.50738929326766   22.43877109587839
H         8.42399250048451    1.84782182819399   23.70189312014907
C         6.46590297529801   -0.96151346456616   23.75989601995423
H         7.45258147938908   -1.32175712670633   24.05931875556828
H         6.52697554450059   -0.65551069584483   22.71702754469472
H         5.76721011769645   -1.79269916548014   23.83629082625806
C         3.47909410078200    0.19220624727107   21.90195541879309
H         4.07298573925853   -0.49920675457516   22.50601683135619
C         4.14852616714185    0.33965747052469   20.53347138990517
H         3.55100600750247    0.96297824114742   19.87328169046788
H         4.26470600660117   -0.63793440514474   20.07278910407637
H         5.12992739311337    0.79677749366220   20.64041439751880
C         2.06555840021991   -0.38139738119079   21.78664838991116
H         1.59995828146602   -0.39040885271622   22.76936295028093
H         2.10843069120988   -1.39815323895800   21.40489669305168
H         1.45253695220232    0.21595101194103   21.11674462596196

