47
CSD_code = YODMUZ | q = 0 | S = 0 | Stoichiometry = C21H22CrO3 | MND = 9
Cr        1.73003484094262    2.13980976962078    2.12002937243340
O         4.56789619855762    1.85911166871276    2.95645989297546
O         1.20555738817305    0.82876552533175    4.74112912674673
O         2.38059110719793   -0.73129360768724    1.72180663156325
C         2.43061791545915    3.42215329050437    0.34399798317194
C         1.48410657960351    2.49634409779271   -0.05806865624884
C         0.15180504769430    2.45481528818367    0.47334997949442
C        -0.34171166709705    3.03179220871295    1.62857411833133
C         0.32431448241496    3.87976536744871    2.57775936287183
C         2.21871576825975    5.36139002027537    3.30415276920017
C         2.24636385813812    6.69978834702771    3.20039865382316
C         1.66384268451691    7.50824810420099    2.15686252198265
C         1.53487902624010    7.12732086768485    0.86868532941923
C         1.93317830762852    5.87910591277099    0.26624756499955
C         1.97676424837732    4.70613290196379    0.92849097881115
C         1.50771074270869    4.53033079780653    2.31558062072587
C         3.84555585674908    3.36605969951698   -0.17274022156096
C         1.82590203897679    1.48788898406995   -1.12614900265341
C        -0.40554891114274    4.10352936503408    3.87959844203559
C         2.93381079581279    4.65005964652949    4.41355806035147
C         1.29650471583027    8.90566335716068    2.56972723054482
C         2.27056377707685    5.94246927963717   -1.19979092286810
C         3.46551525307655    2.04535854338464    2.65990331357700
C         1.35899070459237    1.40582922886356    3.75042188915797
C         2.09940142841909    0.38764202473815    1.80869380190553
H        -0.54272240049293    1.81702829652727   -0.06776140318033
H        -1.37142625949715    2.78879949635497    1.87848405318839
H         2.72169882604287    7.25992051313004    3.99686240862167
H         1.17032807208353    7.86925660294766    0.16819574075350
H         4.29452570488337    2.39349073345491    0.02346005993622
H         4.44937147747303    4.12722001585086    0.31651961964353
H         3.88544990659091    3.54000709966198   -1.24939516877776
H         1.02783835491521    0.75987258790634   -1.25129538395243
H         2.73833683897729    0.94865188592417   -0.87872067663441
H         1.98537801306742    1.99063412796643   -2.08227664911307
H        -0.48922658633231    3.18319796213668    4.45704076917503
H         0.09907638765770    4.85305544977117    4.48368114294440
H        -1.41475630844010    4.45997362585731    3.66943973703810
H         3.16535537879787    5.33354470036045    5.22726958167524
H         3.87201217939692    4.24172872963799    4.03783855372595
H         2.34660314284233    3.81503297296106    4.79243563243828
H         0.61307862800242    8.88036884140713    3.41806908799192
H         0.82161518517619    9.44673717895560    1.75543563522611
H         2.18624899387894    9.45497647601922    2.87784758950156
H         2.03330564038104    5.00501588172349   -1.69768359183872
H         1.70845284943175    6.74024415025842   -1.68059059676121
H         3.33129378695671    6.15086198190136   -1.33983498239313

