47
CSD_code = YODMIP | q = 0 | S = 0 | Stoichiometry = C18H25ClNRhS | MND = 8
Rh        5.53669165637845    6.91385710223986   17.19449293423185
Cl        7.61596709556952    7.64352494273367   16.54077306385136
S         7.70920780250521    3.41351631649303   18.89424672373496
N         6.23782928872890    7.08286194552450   19.11429370533699
C         6.90883828168923    6.06547239060977   19.55478838230141
H         7.43391998856418    6.07189715215368   20.50367169909493
C         6.94539650748702    4.96267112616660   18.68580109627808
C         6.36118096662134    5.11427422780527   17.43630512447891
C         6.57125720993689    3.96838471732393   16.63877906847351
H         6.24092270436997    3.86030369673170   15.61997195999460
C         7.26461009676777    2.99141651954519   17.28942869431977
H         7.54536085461757    2.02567053020223   16.91407084114367
C         3.34863259929632    7.00653645541577   17.29711803435692
C         3.72261240911295    6.24763751010269   16.14242890062481
C         4.50098254434386    7.10162682657183   15.30497292429705
C         4.45263939354580    8.44118237900697   15.87041007104140
C         3.74679926581612    8.38327804486653   17.08031307745727
C         2.39240513419518    6.54394465312106   18.35265898037781
H         1.36697119080080    6.69763355197131   18.00941086244204
H         2.52462541149328    7.09885086393236   19.27889841901219
H         2.52578967954330    5.48507126288478   18.56274556422550
C         3.23897248075835    4.86522775267299   15.82979231418459
H         2.18875685858637    4.91511265867469   15.53557544481586
H         3.31833350830830    4.20763110241166   16.69323618437974
H         3.80116413937929    4.42716352695541   15.00990548718281
C         4.98402374465180    6.81092447927851   13.91645976124244
H         5.09342853629979    5.74184587539492   13.75183198419941
H         5.94749241274725    7.28539444204755   13.74149081681970
H         4.27042702942112    7.20213949717784   13.18820645016687
C         4.98988934116478    9.65035424675828   15.17505400729288
H         4.49346035589274    9.76879816262077   14.21099020919008
H         6.05939248058557    9.54253215611765   14.99484667685171
H         4.82832974899123   10.54914338010737   15.76450758074016
C         3.29901605605499    9.54353560259539   17.91588058967100
H         3.98836839951894   10.38153224442586   17.83563705842935
H         3.20858515007293    9.26785066861891   18.96461909092935
H         2.31748301487857    9.87755861696849   17.57222770053306
C         6.23306673830467    8.33585642589960   19.85572690968019
H         5.67596070228751    9.05645027879510   19.24518440962172
C         5.51266881866858    8.16647622758411   21.19591132425053
H         4.52440920429264    7.73747673205858   21.04229000980602
H         5.40452419401397    9.13246903965549   21.68239786793024
H         6.07247520217912    7.50831428143105   21.85594350547248
C         7.65333157896086    8.87576059854214   20.03718546476278
H         8.22851527269434    8.25343513798269   20.71816945604124
H         7.61649591927981    9.88555668584126   20.43787885846796
H         8.15618903062523    8.89554796395368   19.07277071025619

