81
CSD_code = YODNEM | q = 0 | S = 0 | Stoichiometry = C30H45AuClO3P | MND = 2
Au        1.69103356558199    5.69386448472881    4.40420761421964
Cl       -0.30109332745895    5.35016463253631    5.41712269462239
P         3.63671250417521    6.07564103043959    3.34920328963199
O         4.55839914273577    6.87542162040009    4.34889396158899
O         4.57904498296125    4.86366141412921    2.94163776867100
O         3.62569705621940    6.86838796194195    1.94504168262062
C         5.97767923367626    7.15085511916134    4.36742324694918
C         6.71331955528100    5.96702885784238    4.98864850475605
H         6.28584262586099    5.75874210803751    5.97141022016528
H         6.56656419219749    5.08495185097202    4.36433419383040
C         8.19992081779393    6.30250182915282    5.10598132662308
H         8.72613805005283    5.45140026552755    5.55105444797029
C         8.76497587099369    6.58370420513192    3.71431233879705
H         9.83111567556339    6.80998710211511    3.78434520098080
H         8.65015223588728    5.70095661269383    3.08144477517696
C         8.02309475788771    7.76786639384802    3.09623281402729
H         8.42398142523875    7.97038768013236    2.09686187535823
C         6.53432356731848    7.43790013272565    2.97907883934035
H         5.99489115466509    8.27853662976400    2.53735572353688
H         6.38226123637752    6.56655358075131    2.34092142937555
C         6.15086858475125    8.38354468974714    5.25401962914299
H         5.60349674897479    9.22292045534626    4.82000965844641
H         5.72311781360248    8.17995754933251    6.23694434176380
C         7.63834965209064    8.71676371313285    5.36955388663501
H         7.75966709775376    9.60100036402648    6.00421274567551
C         8.37884113703254    7.53419802291743    5.99195472337560
H         9.44037680352616    7.77106757458981    6.08919440489526
H         7.98681653348056    7.33387379853024    6.99100610618356
C         8.20526175751182    9.00164168100659    3.97933815110487
H         9.26577562985964    9.25015741741898    4.05520874043155
H         7.69262958797304    9.85788847210760    3.53555152206233
C         4.27263359537126    3.80947059086754    2.01401364408344
C         4.98113818736487    2.55680814697383    2.52879569229415
H         4.60002172592009    2.31159822082130    3.52209809660235
H         6.05094771316926    2.75719681626999    2.61791443301644
C         4.73191545190445    1.40397528230649    1.55626688866119
H         5.24001470647689    0.50750472048660    1.92636579115318
C         3.23074412372443    1.13787019475234    1.45624228630488
H         2.83432746353896    0.86349716527293    2.43537438129989
H         3.04598352076674    0.30591519649139    0.77432561302195
C         2.52686255233297    2.39364805852421    0.94403836961490
H         1.44979972812142    2.21039449191783    0.87938901826604
C         2.77718906760485    3.54622714768826    1.91647220796494
H         2.27700883091269    4.45490212258410    1.57066395370952
H         2.38481794725110    3.29974705027558    2.90628250455708
C         4.81979276951630    4.18083651782572    0.63696189643742
H         5.88958745429132    4.38601658629033    0.71815958524721
H         4.32739204466632    5.09033210630833    0.28920814012232
C         4.57186260425394    3.02577410744067   -0.33258052388954
H         4.96639053389166    3.29388704638910   -1.31860458336589
C         5.27977260848680    1.77127970678602    0.17766516901231
H         5.11653880868409    0.94572624838052   -0.51728864612834
H         6.35533079482531    1.94886935188552    0.23854945294219
C         3.07063580326271    2.76144743243678   -0.43557106036361
H         2.56026522001703    3.65007489528528   -0.81276970978643
H         2.88445287226146    1.94589526277781   -1.13700594433678
C         2.72591371354782    7.94064841158420    1.62914781751601
C         1.34973596865877    7.38575126437219    1.26879489939621
H         0.93645354233208    6.85024410654633    2.12903199831382
H         1.45099630074197    6.67617061597961    0.44346564101515
C         0.42711318716252    8.53667565842174    0.87051071434133
H        -0.55927574899636    8.13345901519942    0.62084534375595
C         0.29973315690236    9.51079736044177    2.04024539093969
H        -0.12155317096289    8.99637863344239    2.90585198063230
H        -0.37456424841323   10.32620044129976    1.77195580050725
C         1.67865992239934   10.06975750406521    2.38675913712802
H         1.59134204543155   10.76912837739051    3.22437395220565
C         2.60429807312946    8.92298102942933    2.78850454570268
H         3.59665611269210    9.30187587339418    3.04485999093961
H         2.21060752906555    8.39882861067760    3.66383614878924
C         3.31452815283845    8.65749033421956    0.41248310189843
H         3.42039655806670    7.94707243122422   -0.40981312389639
H         4.30956511989984    9.03339552614693    0.65936499922252
C         2.39152994499135    9.80846012041630    0.01078981626661
H         2.81734179343345   10.32078076908383   -0.85867076157953
C         1.01060518572567    9.25870788870265   -0.34351988540112
H         1.08786478579900    8.56918616645378   -1.18685959283949
H         0.35190048084255   10.07706260403693   -0.63970990677279
C         2.26412235554407   10.79201398370964    1.17338958277820
H         3.24390911887190   11.20597332904005    1.42185363180571
H         1.61423832211995   11.62073822749571    0.88643626294687

