95
CSD_code = YODVOD | q = 0 | S = 0 | Stoichiometry = C52H40P2Pt | MND = 4
Pt        9.02522495758864    4.78232359493379   -0.00019520408881
P         7.85635279473510    3.45585140924650    1.40992700000978
C         7.73861886073294    4.10976525292987    3.10039600385887
C         6.14948053612317    2.95742144054201    1.02216738215183
C         7.41262065437441    5.46118269425525    3.19047176629874
H         7.25455891907143    6.02338254947867    2.27479087743671
C         8.69081806794793    1.85238685648380    1.53647218391389
C         9.96138468415658    1.74795889844032    0.98110867240057
H        10.40072535984864    2.62570819754658    0.50728416412583
C         5.04400201655839    3.42541005445167    1.72132833664997
H         5.17841691599994    4.07593294822254    2.57488510717638
C         7.31629014733108    6.07459251113271    4.42334056375348
H         7.06542275024729    7.12321431249054    4.49088423909492
C         7.99244947874798    3.38214368679451    4.25350646475659
H         8.27410115689967    2.34099264158626    4.18940775537106
C        10.22475685800005    5.22228693506481    1.53876157895068
C         7.56090366316106    5.34190272913426    5.57554972983728
H         7.49783682978800    5.82038617036600    6.54211374416778
C        11.85499273213459    5.72598226586613    3.53554923852731
C         7.90318887233585    4.00304273102729    5.48832771019692
H         8.10995224022129    3.43986933274142    6.38679955964110
C        10.06324021662487   -0.55057898475372    1.64661448523572
H        10.59715013120664   -1.48836406061554    1.69395794592411
C        11.35161126484006    5.97017831692614    4.81513069442680
H        10.28302040493911    5.93063326636415    4.97706761561800
C        10.97782578062389    5.43938740324997    2.46385287975562
C         5.96860749851984    2.12669121730542   -0.08163939277590
H         6.83314081910600    1.78018831901216   -0.63133919517069
C         4.69605192902411    1.76056658352829   -0.47308240478169
H         4.56024052600047    1.12122617436814   -1.33285608487989
C         3.77055131600470    3.05372712739034    1.32520268326214
H         2.91227235015910    3.41647178337998    1.87238740312490
C         3.59480680847128    2.22454957369616    0.23033873159931
H         2.59887784162837    1.94283264294638   -0.07881268083081
C        10.64701439196700    0.54850038792149    1.03758629722689
H        11.63438350765546    0.46736233208889    0.60727798447885
C        12.21140097795634    6.25749911197037    5.85658787286378
H        11.81426389237051    6.44556698154306    6.84481794081952
C        13.23522827176369    5.77240884202833    3.32722084185947
H        13.62557238749017    5.58148591986813    2.33674598432899
C         8.79064624904650   -0.45427721949149    2.18852749451467
H         8.33565670579297   -1.31685093016950    2.65362349315829
C        13.57998739292851    6.30564729254603    5.64175747100183
H        14.24954598438225    6.53164722530219    6.45939192907501
C        14.08680368631529    6.06140628166645    4.37494506340453
H        15.15440987931924    6.09695882079972    4.20552215027282
C         8.09948414137238    0.74206639459632    2.13148770625094
H         7.09844831558455    0.81683944622776    2.53570917626101
P        10.19442469847455    6.10892180428619   -1.40974722165548
C        10.31245439888025    5.45533662041970   -3.10030912448593
C        11.90131959352970    6.60699948385808   -1.02155626320779
C        10.63799886633300    4.10381819130249   -3.19049568816405
H        10.79546582150412    3.54139719347317   -2.27484202423301
C         9.36018851485758    7.71251151979477   -1.53606865288831
C         8.08965925865268    7.81694487883946   -0.98061513798448
H         7.65033919151754    6.93916282901346   -0.50680077764713
C        13.00683864427216    6.13833236550986   -1.72020762841391
H        12.87244382916632    5.48739736913583   -2.57345423071437
C        10.73460861899945    3.49059786663456   -4.42343668307679
H        10.98510786949047    2.44189300339913   -4.49107068581293
C        10.05935666417653    6.18326790149746   -4.25338223011629
H         9.77809040398524    7.22452251933473   -4.18920447422736
C         7.82553674651446    4.34246947334707   -1.53912596879727
C        10.49072220224072    4.22359238144548   -5.57560673062451
H        10.55397670090037    3.74525554936028   -6.54223105989349
C         6.19560154807204    3.83921010369331   -3.53631535082645
C        10.14889216706949    5.56255982727652   -5.48828019887322
H         9.94269794251286    6.12597562977308   -6.38673407403256
C         7.98778398526107   10.11548809411120   -1.64606379685702
H         7.45385105808644   11.05325967550785   -1.69342037466936
C         6.69923460629339    3.59658545839852   -4.81611294989530
H         7.76780495206264    3.63707115540657   -4.97796420012013
C         7.07253199253080    4.12542540041820   -2.46429032241485
C        12.08219191368513    7.43816545824877    0.08192274905484
H        11.21765664172710    7.78517764716311    0.63129606775733
C        13.35476893561793    7.80412787575024    0.47346167078967
H        13.49057353105682    8.44384344391930    1.33295905026585
C        14.28030633407753    6.50985083387071   -1.32399077392626
H        15.13860082418270    6.14658910719192   -1.87081229768558
C        14.45604205814755    7.33954807078807   -0.22951631644128
H        15.45197891924217    7.62120782580342    0.07967004430098
C         7.40403975163619    9.01641035716007   -1.03700112435583
H         6.41669129402028    9.09753925390161   -0.60663988556156
C         5.83973375890176    3.30961662893183   -5.85791223589283
H         6.23708434714998    3.12278207918522   -6.84629411439910
C         4.81537127478537    3.79160643597057   -3.32818704019708
H         4.42477172489232    3.98133264367082   -2.33757915990262
C         9.26036564312245   10.01920100379589   -2.18800639618358
H         9.71534188773791   10.88179273261794   -2.65308918315697
C         4.47116878350168    3.26025819662005   -5.64324882816305
H         3.80183974513288    3.03451102134922   -6.46114633856220
C         3.96408664333587    3.50297131742451   -4.37625552198453
H         2.89648803103157    3.46648796037314   -4.20696540998521
C         9.95153439768617    8.82285602199954   -2.13102379451689
H        10.95259211680359    8.74812032662899   -2.53520627193577

