75
CSD_code = YODXUL | q = 0 | S = 0 | Stoichiometry = C38H24F10P2Pd | MND = 4
Pd        6.01899430468318    4.05676265993438    4.19581562541499
P         7.03657593825531    2.39416669234676    3.04220101722415
P         5.27434420337805    2.38720461182988    5.53314508389500
F         3.55215387248936    6.01248277115549    3.84381235054227
F         2.45182743882916    7.81349258298870    5.66058021869433
F         3.60642291096081    8.09993205534414    8.11077586758866
F         5.81678526308502    6.64375939380108    8.77264244308327
F         6.87589482790889    4.86878110198566    6.89430236597152
F         8.13724293082383    6.39908522876783    4.31288624541169
F         8.95606308221823    8.14967793854218    2.30714961929734
F         7.78848714190984    7.99350362937267   -0.14880586200231
F         5.83799738164054    6.14840648801342   -0.63378001013190
F         5.05754221066482    4.43536373796673    1.42838337227033
C         5.23709826592721    5.46666831630981    5.35635582048085
C         4.10917433318564    6.21229355821218    5.06203660859711
C         3.55100039943385    7.10781913677708    5.96397114354734
C         4.14138821502999    7.25551732234900    7.21692825436212
C         5.27324891790124    6.51656932788039    7.55315448183980
C         5.79432806819826    5.64335497186405    6.61209250820174
C         6.57166182889237    5.43932992866431    2.88057722021705
C         7.56582663393515    6.38005410703020    3.08492382909604
C         7.98325881880034    7.25270676878998    2.08943235935829
C         7.38600985444001    7.17404953508640    0.83344781561620
C         6.38630000410463    6.23598311911935    0.58710632644565
C         6.00219003612995    5.39442240284889    1.61873236806128
C         8.73688857247480    2.33928335730320    3.67623583016072
C         9.06044774542059    3.18256145255049    4.73730133171293
C        10.33668750885571    3.15339853509377    5.27250518039124
C        11.28671267921568    2.29030477084938    4.75079840791550
C        10.96574282582542    1.45300990118404    3.69257780655797
C         9.69293235088684    1.47328967846072    3.15357865354833
C         7.23194053311937    2.26879706024894    1.24836294945444
C         8.12857746445628    3.15956648600380    0.65849424747170
C         8.24354470870090    3.22118746936772   -0.71614747548965
C         7.45693512681106    2.40262706946777   -1.51215298558618
C         6.55728127193909    1.52520914386878   -0.93046405102156
C         6.43456240046900    1.46083502945181    0.44645556585382
C         6.38016190330549    0.75955853950579    3.62548601992017
C         6.21257506158195    0.83503332516078    5.14182107094752
C         5.05309368940983    2.42452544709792    7.32813035760251
C         5.94804716839301    1.84954618937882    8.22238842494850
C         5.77174341994631    2.03212808758202    9.58284147281359
C         4.71927868364770    2.79815035393705   10.05510563484017
C         3.83379554573911    3.38706220573293    9.16549886088463
C         4.00231884915187    3.20668396461395    7.80694490044668
C         3.62477588928811    1.97045279107747    4.89864418716350
C         2.82391897754580    1.00521743548087    5.50208293306540
C         1.58913220391184    0.70297238767402    4.95905375628439
C         1.15226755547463    1.35729949502990    3.81670720099806
C         1.94682913400629    2.31996239698800    3.21547010282880
C         3.18336241866054    2.63137546132315    3.75411919074047
H         8.31084083424466    3.87229142101644    5.13862264619236
H        10.58852422994525    3.80933575062952    6.09169497407231
H        12.28385661241554    2.27185367049311    5.16470733618416
H        11.71117594306480    0.78548100123017    3.28596462260367
H         9.43802885512410    0.83065875068669    2.32106279272165
H         8.72972538058342    3.80215686231005    1.29148853894656
H         8.93712876717517    3.91380000494527   -1.16893108218330
H         7.53923449861966    2.45724501910632   -2.58692325499169
H         5.93869592752068    0.89534392894542   -1.55248585182212
H         5.71550700608337    0.78921061737090    0.89252096985095
H         5.40510510743783    0.59530463211320    3.15385210768642
H         7.05901769371764   -0.04790927722123    3.33242698069422
H         7.19591281121398    0.90110818540485    5.62038562401784
H         5.68224248222271   -0.03859122926713    5.53466298619122
H         6.78295221475008    1.26761632638532    7.86008282850238
H         6.46600487882483    1.58268639657946   10.27719737610915
H         4.59293011952841    2.94541880414852   11.11684709422399
H         3.01967729996836    3.99402857523635    9.53228197747655
H         3.32370125467548    3.67072218626115    7.10052465105716
H         3.16706704591091    0.50632179869270    6.39895646498442
H         0.96366539209202   -0.04251530867680    5.42770013600784
H         0.18576683344768    1.11782535832914    3.39900195932732
H         1.60415863771463    2.83395257425012    2.33053270291075
H         3.80760960198539    3.40142853014824    3.28921877168482

