81
CSD_code = YODYAS | q = 0 | S = 0 | Stoichiometry = C40H28F10P2Pd | MND = 4
Pd       16.62341750188720    2.06334072350755   -0.00002908641961
P        15.59468837324563    0.51467927323233    1.31888489174568
F        13.84960343389778    3.02211797723069   -0.38058316397517
F        12.26853224535207    4.84809327882258    1.01478741413819
F        13.35887628345899    6.19434355697121    3.12238171448022
F        15.95342642860188    5.76660878708117    3.83404613700057
F        17.47135446877410    3.93726170961501    2.39050916600299
C        15.67267685254316    3.50788509567316    0.97560985199206
C        14.35193035714092    3.75751313577192    0.64408261186479
C        13.55554997839037    4.65318046241843    1.33856685802806
C        14.11136686406093    5.33774673542810    2.41604150737215
C        15.43725948182597    5.11845501545123    2.77883655203158
C        16.18987098472070    4.20735552775154    2.05064245259149
C        16.74262974719512    0.18644294240051    2.68676835072568
C        16.40902748243627   -0.62635034319090    3.76733994411552
C        17.32745305457593   -0.83187498742312    4.77966805971285
C        18.57579464272038   -0.22947507032871    4.72113461497666
C        18.90991781341645    0.58092381653300    3.64859525959163
C        17.99672710365391    0.78900553139384    2.62910711987594
C        14.09152789999389    1.08447100425425    2.16782003131309
C        14.19275924202914    1.80029696415495    3.35784623916794
C        13.06532470920118    2.36217938636382    3.92774623893559
C        11.83275124298035    2.22794611179197    3.30914370810819
C        11.72788921977289    1.52406020861038    2.12061556085677
C        12.85153565545426    0.95666170069837    1.54793050507243
C        15.09807390250691   -1.18544444429602    0.76098692091856
C        16.23018808865961   -2.21095595151428    0.65585034501130
H        15.43006042714530   -1.08354309477896    3.81555819263633
H        17.06920063229497   -1.45900140612572    5.62029235229658
H        19.28554058874068   -0.38937114026886    5.51905749202678
H        19.87660160484971    1.05914503561801    3.60751800096864
H        18.24950176224655    1.43787425195044    1.78624124492237
H        15.15768850163876    1.91910459337183    3.83209798297352
H        13.15063196203792    2.91613073489644    4.85081449197671
H        10.95696242827949    2.68194172657708    3.74700836133699
H        10.77028985409448    1.43056844067745    1.63095930191708
H        12.77215884614026    0.43205351065065    0.60570374562398
H        14.36084126515385   -1.54028843198268    1.48916500073652
H        14.59386181835211   -1.08683892443656   -0.20591322264770
H        16.92017895306686   -2.09162365514365    1.49553796782395
H        15.77185357155420   -3.19870238940161    0.75538180739960
P        17.65324184841057    0.51508208668668   -1.31875685651900
F        19.39774384067660    3.02227401845215    0.38028654974356
F        20.97855055630274    4.84850108915483   -1.01497737121983
F        19.88826064200678    6.19435047019628   -3.12282129349094
F        17.29382117438109    5.76632321849241   -3.83457640139919
F        15.77604838808722    3.93679070203909   -2.39119351176559
C        17.57474596293191    3.50716427791154   -0.97637304864840
C        18.89535754909727    3.75735142693765   -0.64455918334694
C        19.69161472480564    4.65327710454407   -1.33890832023025
C        19.13584142403386    5.33768453399446   -2.41649973454170
C        17.80999537110254    5.11818572408496   -2.77935466041706
C        17.05752387357285    4.20683035384665   -2.05128207188666
C        16.50565125647543    0.18653115264430   -2.68686686505177
C        16.83945645963878   -0.62614562429117   -3.76749465630782
C        15.92128515052551   -0.83139617774197   -4.78012021209456
C        14.67294357549838   -0.22897361886495   -4.72176380589106
C        14.33859719326133    0.58121836811482   -3.64913767646909
C        15.25156464145397    0.78908317066261   -2.62940362525982
C        19.15683961412101    1.08417213041744   -2.16744728214394
C        19.05608604822865    1.79997663001012   -3.35751489621346
C        20.18374943487913    2.36188596121399   -3.92691820786075
C        21.41606433620405    2.22761618716790   -3.30781706873908
C        21.52043831931938    1.52375291476246   -2.11923300296532
C        20.39655977866189    0.95635249581449   -1.54701852520327
C        18.14931832180532   -1.18527443067356   -0.76103800928641
C        17.01716058181543   -2.21079660706181   -0.65603934208281
H        17.81853867134437   -1.08311370301143   -3.81575491633568
H        16.17973201389119   -1.45828959878967   -5.62088358351328
H        13.96329753160539   -0.38883542077506   -5.51979357588180
H        13.37181866227976    1.05925394051578   -3.60806580503673
H        14.99860282259634    1.43774247317826   -1.78641344227043
H        18.09131276762457    1.91898727882636   -3.83201038670331
H        20.09881254596765    2.91579191254843   -4.85003469987507
H        22.29207545553207    2.68138528653572   -3.74545792673169
H        22.47785106935474    1.43014854385138   -1.62924552376905
H        20.47549757779979    0.43187000430753   -0.60469376890369
H        18.88662074716509   -1.54032591896449   -1.48904692466674
H        18.65339451363500   -1.08690944890559    0.20591890398791
H        16.32717139638937   -2.09119783414156   -1.49565950089686
H        17.47528888337429   -3.19864247353510   -0.75578229570396

