51
CSD_code = YODZAU | q = 0 | S = 0 | Stoichiometry = C19H28ClIrN2 | MND = 8
Ir        3.19691505087704    3.24943106766362    6.62695415094032
Cl        2.37579711173060    2.47086499982301    4.57624779411038
N         5.04903040135012    2.68499695297647    5.89205939413561
N         5.38258489729628    5.97123436805287    4.42648510904517
C         1.78151890332862    5.58877765980196    8.59855094552366
H         1.05201829231636    5.96476887193996    7.88656119846968
H         2.67486891135341    6.20537829631039    8.53326925171207
H         1.36543689383120    5.69175626330869    9.60278596306011
C         4.27447870566698    4.01526435016033    9.75029427485947
H         3.92384696561651    3.97420549010481   10.78405123700647
H         4.47841780028889    5.05383507701428    9.50063000744445
H         5.20717676175921    3.45827080040484    9.68856971659706
C         6.55696503301994    6.20369649260236    3.63760784345130
H         6.55400587377970    7.23068431014806    3.27608181425332
H         6.58216823975837    5.52838034825458    2.77867193821805
H         7.45822515586836    6.04177018413164    4.23428549227068
C         5.47125576634086    0.62705619781932    4.60809439543675
H         4.48452032024746    0.76955037178147    4.17367446027803
H         5.66259025573494   -0.43738823386380    4.71708786070159
H         6.21259465223445    1.04652790273414    3.93245580094688
C         6.92191126450839    1.24487432131659    6.59234499557484
H         7.66370772523335    1.67483500904692    5.92398166532347
H         7.19140478346692    0.20926729899762    6.78326929117476
H         6.94749308989296    1.79336882795048    7.53145283344986
C         5.67663796853028    3.54518794066463    5.13607558756185
H         6.58745829821115    3.28962015409982    4.60655508276141
C         5.05459481210270    4.79639803331352    5.05217711252140
C         3.81238713809029    4.93621806785406    5.70549943676671
C         3.39769772353826    6.24852794830306    5.42980306550345
H         2.49059313864068    6.72488067619591    5.74482606942782
C         4.37421991395186    6.84240555295873    4.65645662272654
H         4.40940108083585    7.84000220729657    4.25929372000922
C         5.52171436181308    1.31145801876013    5.97600410599725
H         4.82885492053580    0.78524718674890    6.63858686578040
C         2.99782093320185    2.02504406598667    8.65011073988219
C         1.81205083873308    1.87587372132452    7.93169887808095
C         1.26240922972044    3.19779671508056    7.68444906402273
C         2.09553997592375    4.14949194254934    8.33459772652644
C         3.23864048381747    3.44119366884298    8.83449435167374
C         3.84703423159388    0.94486248467767    9.23923446709721
H         4.90478342080284    1.19538157871264    9.17675017535681
H         3.68762272540725   -0.00691118714746    8.73617402896965
H         3.59767771121751    0.81499249218298   10.29468651250541
C         1.12580112476188    0.61136821493997    7.53057295315300
H         1.72520028805201   -0.26156634227269    7.77903674594915
H         0.93999038978186    0.60727274269254    6.45638671897764
H         0.16422867461380    0.52753045851396    8.03960142487696
C        -0.10645277306119    3.42873559893236    7.12638219996681
H        -0.86261935397790    3.14640076272256    7.86215757786783
H        -0.25854418868304    2.82791760972081    6.23182245932798
H        -0.25157592354520    4.47346245790442    6.86339887263841

