46
CSD_code = YOFCAY | q = 0 | S = 0 | Stoichiometry = C18H19Cl2CoN4O2 | MND = 4
Co        8.40604511048241    2.07399478841558    7.79166386464227
N         7.17689534744397    1.94229015515374    9.33070769460608
N         7.31206092535089    2.86482040575405   10.30223916547831
N         9.72222220431045    1.96362750933937    9.25176721440758
N         9.62775217836188    2.86819624928371   10.24356179375164
O         9.46031391199759    7.60316572236541    5.21780867017606
O         7.32065595751989    8.11526256465364    5.73670795308834
C         6.18964963098176    3.66741423993079   12.38165442411392
H         7.03291499576831    3.54285434202548   13.06134601744978
H         5.27796370432550    3.42960444526799   12.92152271962685
H         6.14695864259739    4.71107905251638   12.07147910898037
C         6.31127741030556    2.77056213900072   11.20577271924989
C         5.50611802772184    1.73531443028691   10.78228686899104
H         4.61432198580918    1.37994744297859   11.25526132098374
C         6.08532762082143    1.24009638078579    9.60444833886960
C         5.61856800601664    0.12508689549041    8.75047207414890
H         5.00875481409492    0.52025949081777    7.93870864685674
H         5.02545472276972   -0.57647847757690    9.33097493432823
H         6.46928636537980   -0.38356340978330    8.30123191705263
C        10.83759030783049    3.63474717750028   12.28777345073433
H        10.04355845897356    3.46461800555369   13.01544951644195
H        10.82798102753494    4.68697942902182   12.00511998842213
H        11.78847980627605    3.41313801678178   12.76305790668272
C        10.66876149702379    2.76269807822069   11.09893491227864
C        11.45858931994720    1.73949405480857   10.62022855727411
H        12.37267744798967    1.38062936550418   11.04567580081195
C        10.82839403513461    1.26289552911084    9.46108702293834
C        11.25796761517812    0.16824062167627    8.56226314638522
H        10.38928274346826   -0.29693482735097    8.10033377786607
H        11.83378349780975   -0.57243517928779    9.11078605006992
H        11.87570789002128    0.57572140599324    7.76278915632922
Cl        6.83269777839057    2.19441514727957    6.52570315596675
Cl        9.90061064369100    2.30703235772576    6.44985548894444
C         8.46839115364505    3.72767364323884   10.27980851849617
H         8.49061224517114    4.30823617781879   11.20936292968657
C         8.44483910946453    4.65823781429415    9.07116091477298
C         7.23270920336782    5.06756064032536    8.52027172791424
H         6.29651938072386    4.69450409362069    8.91001503382044
C         7.21864563629561    5.96891885158552    7.46989167158900
H         6.28821727914198    6.29866617881433    7.03540034904142
C         8.41376845150259    6.45969990362174    6.97923688037522
C         9.62487226046851    6.06129397239839    7.51337567871785
H        10.54253581936962    6.44904392691014    7.09992802125527
C         9.64038622318218    5.16700359450960    8.56887310883905
H        10.58620705275431    4.86392680864017    8.99483651697884
C         8.39477255359263    7.54336084497339    5.80376527058293

