66
CSD_code = YOFHEJ | q = 0 | S = 0 | Stoichiometry = C23H34MoO3P2Si3 | MND = 9
Mo        7.77304654975668    2.12908878457163    8.20620807110397
P         9.34025039942418    4.08483057939805    8.73495596093089
P         7.12048333905840    6.45979622678489    3.71222533912660
Si        9.48299179716563    2.91202750199602   11.62050667067880
Si        5.41832856411888    8.30224746010881    1.82611729832574
Si        8.73672569225270    5.05648800074771    5.89127532628979
O         7.10019501612977   -0.54445853149526    9.56600684796606
O        10.23068284293335    0.63292421495858    7.12572421980753
O         6.33183324733286    1.01437627246020    5.73209832350166
C         8.06702719465466    4.41168617817510    7.55975599275626
C         6.70370757844632    4.19416135957664    7.81291828862933
C         6.22048315097536    3.69607599115646    9.04579587765765
H         5.14434931071533    3.66028968303265    9.20061498235400
C         7.05899103100289    3.32124896766367   10.10671780742623
H         6.57604220028698    2.96996630051800   11.01964658233386
C         8.45360025289140    3.43526580705988   10.10720616346793
C         5.67551296828081    4.59206910983517    6.78900309775721
H         5.97828189948749    4.30020172756904    5.78542370706903
H         5.54860093623081    5.67649017251655    6.79522900260751
H         4.71178638246676    4.13283136775531    7.00563320530441
C         9.36796264659466    4.33155799965121   12.89535380000915
H         9.73803076307767    5.26771935625691   12.48736714856875
H         9.96035088446294    4.09797268543577   13.77348134248744
H         8.34578835234858    4.49613233109668   13.22402778698827
C        11.27059498402516    2.67880618652574   11.01222219682722
H        11.30984885226695    1.97047883430755   10.18812399660959
H        11.91088490850660    2.30276757857242   11.80323741074108
H        11.69470633495453    3.61594946636242   10.66178177676360
C         8.78797921356885    1.29201555554153   12.34141504531030
H         7.79743547520222    1.42639264565989   12.76612194785790
H         9.43169439848435    0.92062960576234   13.13213885940451
H         8.71942994469470    0.51814521829565   11.58142556025590
C         7.77202900046992    6.60251538265407    5.32926124560919
C         7.61303562242456    7.73058367023155    6.12700587784115
C         6.91084164997853    8.85157770859998    5.69608820848954
H         6.83257815161693    9.69053146337657    6.37581885952605
C         6.30491120093518    8.96678570555712    4.45804834718003
H         5.78410170981601    9.89282813507847    4.24442814232590
C         6.31431306776380    7.98950349958700    3.47878142559648
C         8.22237442144137    7.77697685729720    7.49985349112304
H         9.30272235875538    7.88930409067752    7.42277784093812
H         8.02041192456713    6.86175709348891    8.05562678665838
H         7.83304986530367    8.61944389177475    8.06747451981392
C         6.16910752672457    9.84720846065891    0.99426583255290
H         6.06592845193549   10.72725086254223    1.62155204451125
H         5.67743427897150   10.05863156005025    0.04993296017339
H         7.22718084363413    9.71137280040418    0.79228257608895
C         3.56633682990998    8.60157427252770    2.18057054724331
H         3.11316843036082    7.74051937972445    2.66235744872422
H         3.01934917675949    8.79141161657249    1.26247613966969
H         3.41895288781943    9.45704728613736    2.83264687438443
C         5.64208263000882    6.77425035360029    0.71651934872223
H         6.69302668002082    6.57561552497736    0.53097697040093
H         5.15559575894153    6.90967142097124   -0.24405255607361
H         5.21965693639265    5.88827399381406    1.18006918487735
C        10.59132081980115    5.44155995924315    6.13204540748979
H        10.78541690800189    6.05314529436514    7.00798696906458
H        10.98976224811766    5.96222590947411    5.26731753285133
H        11.15020336021431    4.51736260903960    6.24877937505340
C         8.60566407761584    3.66687951865395    4.59407122958335
H         9.05669656985253    2.75020458808825    4.96873982195615
H         9.12592566822050    3.94979151505818    3.68483882107421
H         7.57997326543006    3.43908030005909    4.32108505910068
C         7.35078382227861    0.44891303977711    9.04765574522079
C         9.29638476298872    1.17005893826690    7.52553902778527
C         6.87765198116279    1.40676865986090    6.66231925752005

