86
CSD_code = YOFJIP | q = 0 | S = 0 | Stoichiometry = C30H49ClP2RuSi3 | MND = 8
Ru        4.64002937934689    2.37870240661930    4.78232525424279
P         5.16821206045292    0.50987450416569    3.62331842919543
Cl        2.47710502801854    1.72111995263630    5.48627433216094
P         5.67372772890104    1.67645684722343    6.66734475372991
Si        3.61049218774809    1.87801229704591    9.02782416852853
Si        8.00329310496456    0.48525924149495    4.96706095159825
Si        2.47010996195987   -0.44126512144135    2.33171161688369
C         3.74809137082788    1.86566278599545   10.93330007261856
H         4.47067457969037    1.13732250811649   11.28549062831298
H         2.78856940077439    1.60930215424789   11.36856009627529
H         4.03083642679269    2.83610107504328   11.32760096783460
C         4.36751975163167   -0.24160511255950    2.28131874578582
C         6.85441759180438    0.09999449172051    3.48814799164092
C         5.91984647971117    4.23602818262055    4.77582183929868
C         7.78067779086338    2.15945604021947    8.81576975187801
H         8.52266199302427    2.38915541914329    9.56969142092013
C         2.12482050386166   -1.38362361238835    3.94973707664983
H         2.64682929243807   -2.33689383503033    3.97802647304795
H         1.06521305936556   -1.57686365532635    4.08309503136977
H         2.45888220560911   -0.79220891370883    4.79768680155911
C         4.51093205189326    3.75069950603804    3.00076519222325
C         1.54454964002735    1.21424138467286    2.20088075570156
H         1.92545413654100    1.91551242737885    2.93541115665430
H         0.48904977648749    1.07143891104678    2.41017247623170
H         1.63174918180211    1.65689992033798    1.21240010805109
C         4.57364182516478    4.56504162980741    5.16160329761581
C         3.72216015277254    4.32462244345285    4.03336444309910
C         7.32508958564651   -0.61337533337005    2.38649909720021
C         8.23447685765544    1.64893069254839    7.60241797374323
C         5.88197186422002    3.70858861834484    3.45912740110174
C         7.38274695158377    1.39296809821738    6.52839368942246
C         6.49983982562806   -1.01393669145834    1.33794152557977
H         6.96783366982687   -1.51906677289728    0.50271242833232
C         8.46630698369959   -1.26104899537090    5.64850523566858
H         7.94252579162765   -2.04702514999080    5.11279191326576
H         8.20555382496926   -1.35598710656516    6.69853549738879
H         9.53000266797160   -1.45958988676963    5.55827204312825
C         2.28171114514935    4.72579221072367    3.96049170928486
H         1.89135391835932    4.60459020445138    2.95261581603526
H         2.17655877861919    5.77109869304177    4.25317267940747
H         1.67462354289914    4.11802572199745    4.63444004575799
C         6.45139380416451    2.30829571363880    9.16411679572046
H         6.23930065362647    2.60633131053488   10.18286818383057
C         5.12562816258260   -0.87911133174391    1.31380086332074
H         4.60077177008388   -1.31506716930735    0.47369680732468
C         5.37194521626096    2.09509613179909    8.32358887177248
C         7.13740347367130    4.60026398778089    5.56606754280260
H         6.97697755955526    4.44266059875547    6.63279489986460
H         7.36726961317534    5.65680852904663    5.40950349777623
H         7.99809057833775    4.00977723175640    5.26071371980891
C         7.04362170007224    3.45722995988269    2.54960908557228
H         7.97257061539883    3.40204189064596    3.10841458768276
H         7.12172448978304    4.27443003717188    1.82851723999903
H         6.91541295947273    2.52869513601155    1.99227561052029
C         9.53924422452872    1.42794423649769    4.28123680270268
H         9.47770024122223    1.57748990082430    3.20909478503882
H        10.44638501870632    0.86567443812032    4.47540756075067
H         9.66559764996666    2.40280879817937    4.74116132266252
C         4.21594917398909    5.38318376812848    6.36560560618915
H         3.14434116072379    5.35883296480165    6.54432740612069
H         4.51975326944006    6.42166339883965    6.20889218434909
H         4.72268758285552    5.01011866817711    7.25525195451663
C         3.09391629891349    0.13785713025206    8.44915055989295
H         3.64604050262028   -0.63923044953566    8.97191275260578
H         3.29035372603914    0.03048648274854    7.38473916524408
H         2.03479279538882   -0.03925328059883    8.60402573305430
C         8.77692067753013   -0.97576696310481    2.23291672148950
H         9.28408969404670   -1.05245683835579    3.18553002091459
H         9.28502861715104   -0.22028651386417    1.63340118333346
H         8.86959558482859   -1.92567050735845    1.71003359156747
C         1.93791446156461   -1.52353859496986    0.85169667266241
H         2.16697015901535   -1.05695142233385   -0.10077623301596
H         0.86607159257536   -1.68465098814010    0.88262951314948
H         2.41324499923767   -2.49821115492123    0.87088977265883
C         4.13148068170892    3.53105027576747    1.56706717083313
H         4.42051494237345    2.53395802677246    1.23130607805178
H         4.64646920242931    4.26218892617357    0.93949140691987
H         3.06125053229644    3.64317217698365    1.41912574760283
C         2.38744840652266    3.25894181634351    8.56333393126230
H         1.42735841331270    3.07642249295615    9.03655700135207
H         2.22380576827031    3.27532708268753    7.49204270590495
H         2.73311940331568    4.23851807389375    8.88179869056838
C         9.71613089750337    1.41661531710092    7.50018491156288
H        10.19847218029220    2.27273378719964    7.03015234960858
H         9.94332982882001    0.53530588196334    6.91263048826813
H        10.14796964630993    1.29656286132606    8.49139384777091

