60
CSD_code = YOFMEL | q = 0 | S = 0 | Stoichiometry = C27H23BMoN6O2 | MND = 8
Mo        8.23324891347069   -3.56479352345140    2.90690177723946
N         6.90212135269192   -4.52252315292531    5.51486767488427
N         7.10671429015307   -4.81336184777170    4.22144554224155
C         6.49936986297609   -5.94313209337278    3.92281176009852
C         6.13826834139916   -5.48801973624747    6.07720097854504
C         5.84907254343222   -6.44434043348716    5.06752172685512
C         5.06852550038566   -7.56850843843051    5.36355173023236
C         4.60132191051970   -7.70800341809560    6.64485335078559
C         4.89073213474542   -6.75676864475008    7.63765591397313
C         5.65323892998440   -5.64521652542885    7.37751834310072
N         6.90286082802731   -2.08984838025170    5.26351904393409
N         6.98131484649297   -2.10297245477386    3.92054831026144
C         6.10626036507314   -1.24369097841544    3.43828363667681
C         5.96838781193920   -1.18749664845649    5.65698036148810
C         5.42187840568770   -0.60130607472224    4.48812410465991
C         4.43095723057605    0.38190030056125    4.57954189592145
C         4.01232998595369    0.75505842064341    5.83079110241593
C         4.55795131468849    0.17278192186800    6.98614415923437
C         5.53115104768096   -0.79429160643395    6.92310026721838
N         8.99533297769167   -3.31384106783965    5.85028938402308
N         9.43224187562544   -3.62758815539411    4.62491840267201
C        10.74369526416227   -3.77687269133811    4.65560260115370
C        10.04181816353707   -3.25477170128493    6.70600415345133
C        11.21588473349333   -3.54546962835546    5.96103959024419
C        12.46770783202074   -3.55347854616634    6.58914719097172
C        12.51460135089622   -3.27662177730961    7.93084448424192
C        11.34893545758933   -2.98842829588705    8.66088652621959
C        10.10899233344513   -2.97095058792168    8.07181395746202
C         6.84902020054576   -3.89412259987401    1.55208305017218
C         9.17284708892065   -5.05932713374769    2.13338925481879
O         5.94395805661803   -4.45263708253179    1.03723375287825
O         9.69786944236200   -5.93213877555025    1.60208321527515
C         8.78230977030165   -0.47492659057746    1.74744148772532
C         7.62472668227474   -2.63285244492837    0.80429006865310
C         9.92006021672354   -2.74102788700382    1.57520819745686
C         8.74476658556063   -1.96721461885419    1.54915480415692
B         7.49132133159317   -3.22991688582440    6.09873641636245
H         6.53561220397604   -6.34851078308058    2.92894557897493
H         4.84802917995449   -8.29536684647126    4.59729341239970
H         3.99655572382990   -8.56325812544027    6.90704624358914
H         4.49831457954330   -6.91071111841410    8.63200687340311
H         5.87217348326269   -4.91746240755585    8.14172830131753
H         5.94453878251771   -1.11474061821744    2.38569006232098
H         4.01647493659180    0.82716455230784    3.68754425505871
H         3.24928527269818    1.51134151835490    5.93984639591938
H         4.19696677837843    0.49995267071265    7.95004534743927
H         5.94509743735062   -1.23429801968302    7.81536329503455
H        11.29680661725136   -4.06021669453421    3.77936538583715
H        13.36077654078232   -3.77331441380353    6.02449635744331
H        13.46300022659329   -3.27669670018945    8.44698742648622
H        11.43905846971057   -2.77506498478698    9.71565136667708
H         9.21764474583361   -2.74721123774255    8.63452320969270
H         8.93340182694024    0.01745697175824    0.78289937390421
H         7.86986379062355   -0.07488048484858    2.18690760799110
H         9.61918913611715   -0.20924179845391    2.39429125016338
H         6.81389663792235   -1.93391035567727    0.57574877311795
H         7.97307837461746   -3.09384310839640   -0.12999701464045
H        10.16780860923929   -3.37221527654525    0.72498422914338
H        10.79728721401093   -2.27597001461840    2.02129807589519
H         7.24294445302064   -3.10738294034946    7.24410597512615

