62
CSD_code = YOFQOC | q = 1 | S = 0 | Stoichiometry = C27H24Br4CoN4O2(1+) | MND = 6
Br       -0.71633335049840    8.36189118146456   12.48187829049102
Br        0.88616055158443   10.74492397583378   14.19473254209677
Br        4.05710466977678   10.25884660922607   15.04025641515060
Br        5.54187297926375    7.39424743599503   14.19741301689306
Co        2.28676183071171    4.54909607434405   11.81850000419625
O         3.58933722350345    5.62385638376240   12.62170777029934
O         1.19581108488817    6.05396309216506   11.87852764521861
N         0.74960901554466    3.56961832486768   11.15182699823607
N         3.35422441192030    2.85394237546535   11.47906895421557
N         1.51725445298383    4.06416065255800   13.56257287665760
N         2.73692459429261    4.96993098208837    9.88798062972406
C         3.08088939736477    6.79692666935040   12.96878070101026
C         1.75029006733462    7.02310604504840   12.57626105828987
C         1.10254190360751    8.18280136429182   12.96512174759240
C         1.78485190815803    9.15847340781118   13.69146761945376
C         3.11310616507237    8.95183477672852   14.05079956061986
C         3.75290677632432    7.76320473957157   13.69734209812796
C         4.67681898588300    2.64280824994259   11.40336429683441
C         5.19112078084059    1.52542320470459   10.73862520445771
H         6.26119142721440    1.40087748853800   10.69459732044556
C         4.35046276849065    0.60202685906662   10.15874178345316
H         4.73772296725392   -0.25673869686309    9.63440381779883
C         2.98272100971346    0.80033327560415   10.28781685712918
H         2.27708240212227    0.09213498416890    9.88502215336213
C         2.53363747997060    1.92411324711524   10.95280226865949
C         1.06876149371697    2.14050079130571   11.19469299311544
H         0.46332786410131    1.57444015235180   10.47684252372532
H         0.84613156015881    1.75829321535915   12.19737416264352
C         2.06821309050551    4.08879906348552   14.78566054440321
C         1.26702323405892    4.21253046731221   15.92044128873931
H         1.73991849157277    4.27104725113573   16.88752995116490
C        -0.10758424115667    4.25959228158500   15.80357698771850
H        -0.73471989273832    4.38055023632821   16.67243002606695
C        -0.66523373138028    4.11060849727867   14.54273595628832
H        -1.73307513439605    4.08511824583953   14.39964674156624
C         0.17767984543575    4.01920072602198   13.45088466129871
C        -0.36734204463078    3.87335305359451   12.05758329295988
H        -1.14132219790684    3.09765738616482   12.01525594523541
H        -0.81938650984560    4.82716632574199   11.77333882118226
C         3.82546030200546    5.48769284458008    9.30080162257828
C         4.06217499207595    5.29145432194030    7.93702826044650
H         4.95654116657543    5.70529259176784    7.50010112409299
C         3.15864321817046    4.60086093978723    7.15979391798177
H         3.33723052324138    4.43718141667126    6.10899240001719
C         1.98998135699747    4.15569653626349    7.76069935510249
H         1.22134826193361    3.66414586395438    7.18696778423126
C         1.81394134024458    4.36864250309577    9.11456371490784
C         0.51417876985991    4.02595754546346    9.78235816423209
H        -0.05421536063259    3.29280243203081    9.19910797211423
H        -0.06189720011929    4.95626421497426    9.82472802631628
C         5.65501368191425    3.55541839277409   12.05415265336116
H         6.37622282379733    3.91111205586256   11.32125510006293
H         6.21540943273088    3.00024873309610   12.80572160801306
H         5.17569469335391    4.40035153099168   12.52973792757937
C         3.53715698126682    3.92138957406232   14.94277041579769
H         3.91817397979410    3.24003458494335   14.18818933655801
H         3.76537084257699    3.53995555209224   15.93403359919190
H         4.05575632331100    4.87055359431435   14.82084990483385
C         4.76547177660403    6.35379873745698   10.05764818291789
H         4.33786489660702    7.35644790431768   10.11007762444777
H         5.72390846313749    6.42179240879251    9.55241596753007
H         4.90440540373698    6.01454532441514   11.07719981116343

