94
CSD_code = YOFSOE | q = 0 | S = 0 | Stoichiometry = C41H48CoOPSSi | MND = 8
C         2.62313945252276   -0.64151221813307   13.30564581392306
H         3.64617159495235   -0.60244974195183   13.64433944615002
C         1.50815122527717   -1.06128236324643   14.08811547053780
H         1.56225911859114   -1.44941432406116   15.09404945055386
C         0.38380087217568   -1.15000907361180   13.22889616186829
H        -0.57981134018110   -1.55655980543644   13.48821874078004
C         0.76609129892038   -0.67386695654108   11.97025943231593
H         0.15911227273313   -0.68363845936956   11.07901995220819
C         2.16283508014219   -0.38174128169159   12.00876585275011
H         2.76709077559585   -0.10861862941591   11.15644922122347
C         1.94370640261654    1.86266493745302   14.73259955004287
C         2.55950362659494    2.47409761417965   15.58176194481330
C         4.84803841885692    2.09920639246337   17.52386573067916
H         5.46909971131442    2.55965760400422   18.29942518416651
C         4.15842042805336    0.88418373756956   18.13770918330443
H         3.51152256359923    0.41153940272566   17.40193725474938
H         3.55202447282799    1.16946496798197   18.99361778714642
H         4.89227763287470    0.15054593822142   18.47148806683238
C         5.77163440810661    1.64436153918515   16.39840257752229
H         6.47855309828023    0.89585162133934   16.75634972821305
H         6.33858584058746    2.47987862451184   15.99578823175438
H         5.18677270967162    1.20737860440692   15.59235821483511
C         2.33116139952771    3.79607946411174   18.30022973724857
H         1.88189570327520    2.84874441595438   18.61856669472438
C         3.01475338190889    4.40755277789981   19.52065937328198
H         3.42840921584835    5.38492025099311   19.28473202155859
H         3.82159830251598    3.77140356560761   19.87717065309104
H         2.29975300112396    4.53559989700159   20.33381762533216
C         1.18602133515072    4.68900057134362   17.83488957261115
H         0.45824751809206    4.82795370780260   18.63445090014392
H         0.67842704359858    4.24419248651476   16.98266461111117
H         1.55531494166095    5.66972089405014   17.54458938490428
C         4.44295263713543    4.80430112447123   15.97086104094612
H         5.13524549735461    4.33671173800405   15.26268386256951
C         5.26535820671673    5.68939923133612   16.90320579854817
H         5.85641073323497    6.40397427698796   16.32972957938886
H         5.94594585289402    5.09602889254516   17.50991398764209
H         4.61589194274804    6.25523960360343   17.56734093151957
C         3.48796132550532    5.65617329199350   15.14178718411122
H         2.78673843570316    6.18921221885454   15.77823423646174
H         2.92165212601240    5.03536195970932   14.45289195415085
H         4.04007264811485    6.39339835761306   14.55879304904249
C        -1.02244376807674    0.27973652242484   15.67403113860010
C        -0.19645876572783    0.31357404015093   16.79066395977902
H         0.59415524001527    1.04708203153117   16.84179717856052
C        -0.38136535265306   -0.61103642947861   17.79857720293615
H         0.26804714402485   -0.59781732198596   18.66230130635505
C        -1.39282146915638   -1.56609427841489   17.71915704756940
C        -2.22785233579346   -1.56629118908616   16.60799222017441
H        -3.02340898123332   -2.29476722133426   16.53796776603941
C        -2.05081601258079   -0.64537329688659   15.59247360998470
H        -2.69768957384145   -0.62968153738257   14.72709588118065
C        -1.58859167415838   -2.55520275028779   18.82740552400782
H        -2.13698582627333   -3.42747956947899   18.47991197251689
H        -2.15693870700815   -2.09796970966036   19.63818563871260
H        -0.63109139809729   -2.87682377591678   19.23177993726428
C        -0.19396778892528    3.97586154646329   12.63448082505993
C        -0.04716441620302    4.47350062210498   13.92748372889313
H         0.70690893365878    4.04253722339188   14.57154153433574
C        -0.85440318574652    5.50195767200310   14.37403668178560
H        -0.73374173752046    5.88172976699684   15.37760112258730
C        -1.81986308425073    6.03903481805251   13.53747983431064
H        -2.45706614352770    6.83793881318537   13.88708167542570
C        -1.96726985573375    5.54886493883913   12.25151968360699
H        -2.71708270257240    5.96706813508514   11.59567195739826
C        -1.15815745980615    4.52179462259664   11.79632985650412
H        -1.28275481500043    4.15067714189348   10.78953770892250
C         0.42677048352628    2.25892207500319   10.44307753626577
C        -0.85308807010995    1.73051337090018   10.27185221037231
H        -1.49073025367617    1.59928084532606   11.13706706004361
C        -1.28830109767485    1.37066757591453    9.01071266768695
H        -2.28196651845492    0.96770667730166    8.87849789039331
C        -0.44779638723253    1.51814844555740    7.91712830227815
H        -0.78764619409231    1.23341093197922    6.93207653216040
C         0.83095523056586    2.02051378583934    8.08903397833663
H         1.48956394292818    2.12479970822289    7.23886734440047
C         1.27321663739532    2.38776466105388    9.34894293263061
H         2.27398141946183    2.77487042522003    9.48198216554197
C         2.47550490187379    3.60527820625423   11.90518162375040
C         2.42309774771197    4.86649857529084   11.31822592359510
H         1.47202951681516    5.27127864895392   11.00061922852101
C         3.58328408707588    5.59816287576923   11.14805085446449
H         3.53876492525253    6.57782811063753   10.69504119689853
C         4.80058657662580    5.07932171638165   11.56112305347933
H         5.70398981764177    5.65709268036121   11.43200301656404
C         4.85644984607517    3.82360295058537   12.14133447835054
H         5.80372460304012    3.41834119414787   12.46504364881407
C         3.69767076274097    3.08722666252172   12.31272858234314
H         3.72914313524169    2.11545956220695   12.78301401544435
Si        3.54733859462956    3.35712888099040   16.87163453820575
P         0.94637544761070    2.63976700220469   12.14393941385569
S        -0.81207088324047    1.52152211198584   14.40631853193757
Co        1.09028228067194    0.86242785505999   13.42306033693744
O        -1.81799772835208    1.23293679239976   13.36396274943463

