41
CSD_code = YOFWAR | q = 0 | S = 0 | Stoichiometry = C13H16MoN8O3 | MND = 6
Mo        0.60401378053697   10.80274320636076    3.22959594806603
N         2.43487196437743   11.01626639049666    4.44883230313713
N         2.69999893610624   12.13069765657315    5.15263712614136
N         1.37670931471410   13.73645377872935    4.03822707873259
N         0.80581386031553   12.99780597347438    3.07078919715616
N        -0.46714279462802   10.88774198427119    4.61782242535403
N         1.96589505818341   10.89316587965522    1.75131171087142
N         2.92128227655496   11.53216156267265    1.53727905645698
N         3.85660963974869   12.13712463847165    1.30493952375036
O         0.24040548356403    7.75435882657407    3.58052165018992
O        -2.04112684861977   10.53620763281759    1.65480108087475
O        -1.17827019159085   10.96454398212324    5.57033496548661
C         0.47084700342424    8.86440016879445    3.40201496892711
C        -1.01377546407333   10.67404621569873    2.14750846685386
C         3.62734068370992    8.94267033903215    3.82739863324225
C         3.53255377537228   10.27440742416426    4.47541278227375
C         4.52589000592058   10.93439841701006    5.21738047402645
C         3.96762327665162   12.12060905074622    5.63516775444245
C         4.54497735675054   13.21787492313378    6.45060890595351
C         1.67848086135119   13.12915465323391    5.30454498036265
C         2.19262253947062   16.06127650621578    4.48439022153868
C         1.58155132564054   15.01341615144661    3.62938988643220
C         1.10959795337826   15.08146511215306    2.33868160818786
C         0.63520757831793   13.79658839090331    2.02731196122497
C         0.00379249134936   13.35222845958225    0.75993151217967
H         4.65094501074448    8.58090810607309    3.87508974535315
H         3.31437531902311    8.99707118050946    2.78450552107194
H         2.97635064405894    8.23201373986746    4.33730668442353
H         5.51882002300569   10.58623274336716    5.41320830572879
H         5.54957422532847   12.94288264385089    6.75723544943739
H         3.94985246115236   13.40160854953537    7.34479081781350
H         4.60589114367233   14.14171127732353    5.87567767113109
H         2.02040228080099   13.89572714959439    6.00254725413631
H         0.76677265945881   12.64792083179620    5.69394644004240
H         3.21845451380973   15.80314299316289    4.74714804465588
H         1.62223798837384   16.20410460013272    5.40222528469121
H         2.20792205197649   17.00061100794907    3.93967892841895
H         1.10864796298635   15.93888414232635    1.69812521565464
H         0.47059541877790   12.43737507392873    0.39495430395268
H         0.10167554271510   14.12879063954677    0.00639929568798
H        -1.05488711241000   13.14830799670219    0.92142681593806

