65
CSD_code = YOGBIF | q = 0 | S = 0 | Stoichiometry = C20H31BMoN8O2S2 | MND = 6
Mo       -1.62733207101934    4.92523587602289   16.81590055579694
S         0.01524956779604    5.59488050785552   15.23131450122170
S        -3.62139263145605    4.32511546172300   15.64896826652349
O        -2.52388612654471    7.68410827411026   17.21269829744443
O        -2.71483298400153    5.76325624954041   12.37112223911709
N        -0.99436005327716    2.93160453821087   16.29746955872527
N        -0.66882106465530    2.04345060050947   17.25893375061047
N        -0.03763738900047    4.84167689576026   18.31379024863848
N         0.27351468438312    3.66703764232562   18.88859500834754
N        -2.57272366106045    4.03244805932326   18.58614124731958
N        -2.04778231591353    2.92416685532010   19.13540954160458
N        -2.14630645354778    6.54553216994353   17.12001152956474
N        -2.43959597270235    7.28116146965741   14.01413331892239
C        -1.09631998880458    2.92555883432924   13.78630705478377
C        -0.87988314119626    2.31038519189508   15.12205839609026
C        -0.47668131414508    0.98952502011707   15.34139330292728
C        -0.35153663913655    0.85531673883888   16.70872745422725
C         0.05032702472234   -0.34571891461712   17.48626300990113
C        -4.62375173129550    5.41620690142411   18.85282307275928
C        -3.73449463966629    4.27813745291962   19.19345191463523
C        -3.96119003918049    3.29224385597107   20.15392249323476
C        -2.86620083556255    2.44876241022006   20.08905073813708
C        -2.59126013717101    1.22926508259340   20.89120093858340
C         0.86723231044191    7.15626216747884   18.25993617050088
C         0.86892297112437    5.73972005674953   18.70174339149850
C         1.79062307187902    5.11849668064407   19.54421741214490
C         1.37881759050366    3.80078620055719   19.64077872880323
C         2.00218185740335    2.69456518124585   20.41146589733673
C        -4.67425087587126    5.78430906748286   15.29713980450269
C        -4.58408402334781    6.16521729290246   13.82374658701814
C        -3.15578269820673    6.35978154358834   13.33084447019809
C        -1.07856692260255    7.60108576382359   13.66550807570701
C        -0.11984414229055    7.37313367238921   14.82784078041446
B        -0.64738977728895    2.44653764217496   18.72882280651304
H        -2.83131406206751    7.75037327235626   14.81813253844559
H        -1.85618178566808    3.70529467558628   13.80420752894155
H        -0.16703532661568    3.36995191253104   13.42766085718691
H        -1.40116096394154    2.15622400569051   13.08038214862216
H        -0.30255941422657    0.23984739076132   14.59691432280447
H        -0.73400731836019   -0.63633739901861   18.18298824492438
H         0.23577567991607   -1.16967296192316   16.80270883610221
H         0.95659004049816   -0.15267446536343   18.05779898923510
H        -4.04727631417806    6.32294965135352   18.68384420000713
H        -5.18484485752233    5.18562327817600   17.94679100873838
H        -5.32901103114863    5.58794653061799   19.66196342097774
H        -4.80711997512785    3.20754675126951   20.80488445684196
H        -2.45504991111406    0.36640722279154   20.24225756199899
H        -1.68713826520531    1.35244824506872   21.48465284454430
H        -3.42694027415820    1.03995047442873   21.55900649304654
H        -0.14730865990901    7.54944258060461   18.23288774175277
H         1.46517070783531    7.75673324805710   18.94086155176284
H         1.29981330175930    7.22958016392823   17.26104938788893
H         2.63933111772752    5.56864511122185   20.01700143727901
H         2.25843167702796    1.86616922584649   19.75394282192907
H         2.90647274413582    3.05512420883914   20.89370249125871
H         1.32050400712811    2.32300357355990   21.17449266521936
H        -4.37148503104035    6.60202682888872   15.94858271423055
H        -5.69988019988935    5.49545181200146   15.53554195351663
H        -5.14458608632146    7.08859908794873   13.65240499004829
H        -5.02190122028510    5.37186788420978   13.21523089766550
H        -1.01446313825458    8.65198892353980   13.35397952191705
H        -0.81200517897282    6.95779826959500   12.82186884993342
H         0.88079520879796    7.70488079739144   14.54752156991108
H        -0.45696235386474    7.91886067642796   15.70853382691832
H        -0.28981456626152    1.55759658057328   19.41307356259269

