35
CSD_code = YOGBEC | q = 0 | S = 0 | Stoichiometry = C14H16ClNOPtS | MND = 4
Pt       10.24459370510297    1.55175017348830   11.35979348630989
S         8.35014269886577    2.87935044642598   11.49803930095197
O         9.74805004320082    0.88051271294353    9.50382957990093
N        11.88634929164769    0.32709011454053   11.04334177122922
C        11.88562139756099   -0.08204252903812    9.73884090214587
C        12.89610850260984   -0.01420077492175   11.82951264561600
C        10.73211644892800    0.23230561780502    8.95723795590580
C        12.95433978293856   -0.81717911534553    9.16810085000119
C        10.69802553278921   -0.19446684989242    7.63146278386744
H         9.82623817458259    0.03509346525422    7.03830102559697
C         7.24726177465340    2.32798608511941   10.14846986025259
H         6.53398908472716    3.13311496243702    9.97038921765597
H         7.84857048355599    2.15268227320906    9.26125269471548
C         6.57332166892369    1.07342091135677   10.66966256101063
H         5.71081681379117    0.80629500420962   10.05907243773837
H         7.29014085734286    0.24878418789412   10.64779236492799
C        12.87957363040245    0.33962754277658   13.27647771975284
H        13.11932858871402    1.39392120879601   13.40900952221211
H        13.60503723308283   -0.25664976068309   13.82310236044910
H        11.88745801650430    0.18832894689499   13.69689743428217
C         6.18143626741869    1.38810828654317   12.10878569650569
H         5.39585219556754    2.14671566197693   12.11597214236857
H         5.81364524778133    0.50590921654267   12.63239973663512
Cl       10.67195786108135    2.53227601235655   13.37943022398078
C        13.99986143029235   -0.72885122307823   11.31948715847023
H        14.81102884238304   -0.96378295572882   11.99122333857017
C        12.87724393233081   -1.21023759015596    7.82236833394043
H        13.69842102660286   -1.76062605284135    7.39008413710694
C        14.04426536781873   -1.11380967334830   10.01113169531784
H        14.89134910549390   -1.65475755019119    9.61512496601976
C        11.76337370953809   -0.89799563667422    7.08124910951884
H        11.70500651956897   -1.20544441763525    6.04715396557445
C         7.43352268061277    1.92495845081676   12.78259708262408
H         8.08602515417125    1.12324565716410   13.13306421645418
H         7.22782692944160    2.60146719100567   13.60914172238297

