64
CSD_code = YOGBEB | q = 0 | S = 0 | Stoichiometry = C21H35N2O2S3Tc | MND = 5
Tc        2.94174984219577    1.80187490002166    3.15438755456740
O         4.20173594569304    0.87639495001022    3.66630908734955
S         1.60980184219884    1.08891053358117    1.43531720942768
S         2.64192938395620    4.01894813573305    3.63972341153133
S         1.31718833495632    1.34359818602176    4.72011200609886
N         4.22254926658870    2.82470859918709    1.28352240102659
C         2.71208433935508    1.22535581178655   -0.03456452965570
C         3.45408034227426    2.56687638125707    0.05305318672753
C         4.37102601979291    4.27502545748894    1.51587119717995
C         4.20873019055286    4.73085274868158    2.97607273672300
C         5.54949926579827    2.18109558062470    1.27141464910336
C         6.42703925540460    2.44181438910122    0.03213650896231
C         3.59569120665647   -0.01765208913538   -0.07521608965616
C         1.81638493638510    1.25853198780925   -1.27404318025972
C         5.35007021937105    4.30179396047831    3.89364109747424
C         4.07444123266473    6.25335992124760    3.00129885843145
C         0.56991823259039   -0.29182310260990    4.31472040229838
C        -0.75215442708350   -0.41237574485111    4.99682613015452
C        -1.89498136926329    0.10118802340223    4.39492107982504
C        -3.12124184425998    0.01285972599152    5.02733363279829
C        -3.21928544473159   -0.58755269057593    6.27144105171307
C        -2.08453196141389   -1.09510579665555    6.88077129046408
C        -0.85727673561158   -1.00528486704852    6.24867059870982
N         7.81454063341991    2.17675419424022    0.36630484602997
C         8.47674597678239    3.31239385251611    0.98374179195380
C         9.87457201219413    2.89021744448479    1.43580989339998
O        10.64161288506735    2.42255192588500    0.35315716666132
C         9.99975969658109    1.33461312638413   -0.26690336881023
C         8.60547925747503    1.71941378830824   -0.76353525319521
H         4.09365721466876    2.67447387691354   -0.83159653160098
H         2.67404195679591    3.33305410973925   -0.01074576899688
H         5.34869772747674    4.61833559836317    1.15905274831456
H         3.60826127648816    4.80762601841085    0.94123300020222
H         6.08673566482024    2.52596047980376    2.15144408104888
H         5.43038643867768    1.10687233472859    1.38915405593417
H         6.14436017085187    1.75857667956619   -0.77173446363291
H         6.29671881021961    3.47245547738556   -0.34368764952430
H         2.99097470572769   -0.87490488328648   -0.36422764257920
H         4.01490561214768   -0.23289944607903    0.90622731520193
H         4.39825242430456    0.09706620219313   -0.80181097999687
H         1.15356902516503    2.12119537325703   -1.25429468778392
H         1.20108518633212    0.36305485233781   -1.30727304366113
H         2.42143032004762    1.30059108542275   -2.17842342533188
H         5.20607297683438    4.74856109423940    4.87507706617673
H         5.36384279871428    3.21986410193016    4.02688298781361
H         6.30866864870561    4.64108055606941    3.50070640520894
H         3.90387168355142    6.58975073535720    4.02035491758290
H         3.23265400102822    6.57914487407996    2.39410952689590
H         4.98256319390246    6.72214904621923    2.62529393561980
H         0.46411901630487   -0.34342173658680    3.23243041033397
H         1.28044799096782   -1.04090074658885    4.66236301217496
H        -1.81493113674547    0.57309948006298    3.42626881796429
H        -4.00353655134900    0.41386429410782    4.54978665171710
H        -4.17723743812637   -0.65710084870778    6.76574364495865
H        -2.15578292409992   -1.56099479097540    7.85287255408626
H         0.02875162889792   -1.39604021333953    6.72722994112289
H         7.90572750517285    3.64126353370561    1.85329756812371
H         8.56454998244400    4.15758970747095    0.27520366867163
H        10.41795401950733    3.73881770407821    1.85462566296479
H         9.77839819386053    2.10160508051240    2.19660191709444
H        10.63670532469242    1.03534550019263   -1.10071917362670
H         9.90592811773267    0.50077937853545    0.44423466438187
H         8.70113834220209    2.50169928248460   -1.53809348942472
H         8.12615955648057    0.84224687506879   -1.20268306448512

