27
CSD_code = YOGCUS | q = 0 | S = 0 | Stoichiometry = C6H14Cl2N2O2Pt | MND = 4
Pt       -0.15328740003920   -0.25847980641025    2.36306536180082
Cl        1.10343664558799    1.29904344428613    1.33232258473131
O         3.16292282646338   -2.31304838570193    0.75994310941246
N         1.02613230145700   -1.64606706536162    1.37920662765567
H         0.67954483280873   -2.00383459529546    0.49272376709167
C         2.28125049221829   -1.73799438612459    1.57882285908824
C         2.90469296652053   -1.19914698623813    2.81920951733763
H         2.15601055816810   -1.12115592054398    3.60709056309496
H         3.26835323529830   -0.19483893276631    2.59969349281081
H         3.74303576598225   -1.81842785469575    3.12632043310883
C         2.74737431156137   -2.72741241714111   -0.53023938830424
H         3.65172710278939   -3.05678224872536   -1.03714927633523
H         2.30237939636465   -1.89550472665288   -1.08303764333240
H         2.04086513025379   -3.56108271431903   -0.47268746769795
Cl       -1.41096498025729    1.29916381927522    3.39235612772574
N        -1.33326530113723   -1.64513671185461    3.34775559446621
H        -0.98716237688506   -2.00281958223035    4.23446138777567
C        -2.58815729723995   -1.73777498880901    3.14705078876025
O        -3.47029552552024   -2.31329209360844    3.96511011742602
C        -3.21075465240534   -1.19944877150394    1.90601331840772
C        -3.05572949336323   -2.72795578841157    5.25550522538156
H        -2.46160694536019   -1.12210976390908    1.11849026169247
H        -3.57420015792665   -0.19490761207186    2.12476203483828
H        -4.04907725204100   -1.81867719321102    1.59877783461692
H        -3.96070874773266   -3.05589391629500    5.76223884480895
H        -2.60968321517571   -1.89664290373263    5.80834526159027
H        -2.35043222039040   -3.56267189795050    5.19824866204864

