27
CSD_code = YOGCOM | q = 0 | S = 0 | Stoichiometry = C6H14Cl2N2O2Pt | MND = 4
Pt        3.82902661957351    2.64535225198200    3.65557801489350
Cl        2.18260385730808    3.08005009612946    5.21917316812834
Cl        5.47411243703742    2.34491730410809    2.05914165844691
O         1.05018034583852    2.77988915019585    0.52812630210011
O         6.57505218031485    4.30562751721682    6.34027163139168
N         2.43461583599371    2.23688110615764    2.31045853370833
H         2.04467009351680    1.29419175604670    2.32207954337897
N         5.22187745400640    2.94783580754813    5.03062115247045
H         5.62407217796522    2.12199841552610    5.47442787898884
C         1.98490521709241    3.04935119462772    1.43813126336250
C         2.50715955302639    4.44514660137126    1.37079488479102
H         3.57594887161628    4.40739289261491    1.15878638332955
H         2.36461791631314    4.92423697092515    2.33947783005237
H         1.99204787783047    5.00322918160652    0.59528019189332
C         0.47921771578617    1.48259501133324    0.48153234834725
H        -0.23728401742643    1.50804165242653   -0.33633477145884
H        -0.04167303884069    1.24758215322533    1.41390258160962
H         1.23948283158451    0.72420301863134    0.27519835882673
C         5.64823455569358    4.08729484083483    5.40895898034988
C         5.10300392749384    5.33367841554389    4.79657963054276
H         4.03386343401850    5.38484677288131    5.00466183241652
H         5.24236720100390    5.28793663468876    3.71640723081755
H         5.60455917389102    6.20536592562604    5.20502330913659
C         7.16568640219080    3.20104881916764    7.00535024411477
H         7.88010520844880    3.62918603095495    7.70492386173508
H         7.69215029971626    2.55174928820482    6.30032609631929
H         6.41639586900186    2.62637119044590    7.55682186028035

