82
CSD_code = YOGDEG | q = 1 | S = 0 | Stoichiometry = C41H34CuN4P2(1+) | MND = 4
Cu       -0.34416807849093    9.65062222575553    5.11870538566200
P        -2.35337037249449   10.68006825141047    5.27424434535725
P        -0.21075187279464    9.34737694291490    2.87259293174782
N         1.35684650670298   10.53107167259751    5.83009939060505
N         4.77126918140899    9.66324827664913    9.08363442337531
C         3.10625437289606   10.14455311082703    7.42799430257923
C        -2.63794808228869   11.93122021454394    6.56478953679884
C        -3.81194595968131    9.61171983830503    5.46804572100242
N         0.14893656095187    8.20653923640681    6.43395368469993
C         1.91839855643069    9.76667910551109    6.77776830486906
C        -1.24909520097423    7.98777342161734    2.25399882060360
C        -1.02217106822645   10.77778899625997    2.02203039330397
H        -0.44411784427093   11.67947327997629    2.24565345691268
H        -0.96909213656606   10.58535624104771    0.94413501434863
C         1.33966479686019    9.11886769184424    1.95688455346388
N         3.48593790723945    7.29332498032324    9.75801466642503
C         3.71380201023034   11.34551586298256    7.04828483164922
H         4.62451182885282   11.64708357972431    7.54118480204655
C        -2.01346271269192    6.50545826472189    0.53136093894891
H        -1.93999055219609    6.12655889801357   -0.47680411345867
C        -1.53254526541335   12.42002347519632    7.25227547975556
H        -0.55097366014674   12.02778638048796    7.01581463900939
C         3.64835980845937    9.29149272837448    8.45899334955387
C         1.78788223297425    7.69465769829250    8.11532670561186
C         2.99634875889766    8.08902146494137    8.80065023022214
C        -4.88050735426206    9.52028946945016    4.58470189554907
H        -4.92865278315930   10.14477937073082    3.70560623086220
C        -3.77658937537686    8.78757270861607    6.59327924615819
H        -2.93352071179910    8.86520589735369    7.27022771782177
C        -2.20249006134596    7.46335424705149    3.12040207960270
H        -2.25975305230268    7.84980098104366    4.13181878350011
C         1.11684146157312    6.50246113093802    8.40508641539577
H         1.51094585692225    5.85565766888497    9.17286927091524
C        -1.15433962130454    7.50351728629201    0.95338513913245
H        -0.40795073232418    7.90301236239435    0.28092745750126
C        -3.91034429726600   12.40629503217574    6.86620959160163
H        -4.77170873909027   12.01289494708956    6.34427841283102
C        -0.47029339584376    7.07536341030469    6.71448183117959
H        -1.35717769708101    6.85801053886622    6.13524608463774
C         1.94449571207207   11.65715459020402    5.47634582567048
H         1.44752617079828   12.22950159956079    4.70460152401739
C        -4.80109005911477    7.89589186719875    6.84085201059442
H        -4.77198846939877    7.26660869804505    7.71785462237020
C         1.94795426206871   10.10096899619816    1.18351438214571
H         1.47683035165266   11.06258148815883    1.04392102724121
C         3.12800638212830   12.10507673924943    6.05578899072154
H         3.56839495238709   13.03455895618427    5.73328897322969
C        -1.69413551419086   13.38925610152372    8.22548959850302
H        -0.83529243919947   13.77001672921751    8.75806422373967
C        -4.06626206262976   13.37305328946339    7.84208286379043
H        -5.05259749778922   13.74312376152514    8.07783274923620
C        -5.90293862863999    8.62022678682769    4.83516844192876
H        -6.73350902869990    8.55362197714946    4.14851695618563
C        -2.96133513243696   13.86633735318016    8.51876144180309
H        -3.08972364578524   14.62074367493576    9.27975406438156
C        -2.67696215685770   11.69916716815296    3.76693912479497
H        -3.69702929324738   12.09239476322633    3.84351415981827
H        -1.99377521601811   12.55352753622300    3.83377823696249
C         1.26058719126339    8.52872620397822    7.11412873960922
C        -3.06661890152843    6.47320660294757    2.69101725081833
H        -3.81192218266473    6.07757438954339    3.36522301645213
C         5.23701348343875    8.86982869338564   10.02082128926509
H         6.14413748354297    9.18741350935548   10.51463166505820
C         3.16486990514464    9.84194076024130    0.57576486651261
H         3.62899174272349   10.60186582094404   -0.03498324852695
C         3.78600848170617    8.61622858034459    0.74538424752526
H         4.73214115543589    8.41986374328956    0.26494264330794
C        -5.86646265061840    7.80969027614217    5.95703696516905
H        -6.66737870028035    7.11092153795292    6.14402148433658
C         1.98286886499999    7.89575154459718    2.14743063697760
H         1.51107281995663    7.14519235160316    2.77002192414346
C        -2.48331950416456   10.97791344981652    2.43027412845708
H        -2.96627990688822   11.58108141565443    1.65586614331217
H        -2.98501068570249   10.00633532886733    2.44862666362549
C         3.19475248278132    7.64255201199932    1.53651046642750
H         3.68127042198880    6.68876609543685    1.67540011374142
C        -0.02521201326031    6.19335587275625    7.69488738501188
H        -0.56971849882291    5.28283389257741    7.88568637100663
C         4.58844550078854    7.67454831338957   10.36117584501296
H         4.96767867533785    7.01919851097243   11.13206173228087
C        -2.97027700515847    5.99362955824785    1.39472084417141
H        -3.63974606013726    5.21787256984506    1.05602765739119

