88
CSD_code = YOGJUA | q = 0 | S = 0 | Stoichiometry = C34H47N5OZr | MND = 10
Zr        0.68006911988307   -0.06674064202133   10.78037903928535
N         0.63225052661809   -2.02476908965534   11.62555587626433
N        -1.33802575270822    0.13470261704009   11.40746321604970
N         0.78505852437884    1.95307552068924   10.21965198978947
N         2.70923364343760   -0.23688895938028   10.20287338991775
N        -0.07609387256852   -0.92519992064942    8.78596389991099
O         1.35077062373625    0.60001822360881   12.79303254695950
C         1.64619664168830   -2.69369328799644   10.97195025787807
C         1.12299070049524   -3.66133902667290   10.14059724550761
C        -0.28211346972944   -3.60729319859455   10.29117381671111
C        -0.54280632268806   -2.61017211309011   11.21603438288076
C        -1.83935486762083   -2.29095961411591   11.91472405330789
C        -1.83344360044997   -3.06306617384015   13.24863687391379
C        -3.04497258102640   -2.75771689029694   11.08044259179287
C        -1.97660630390009   -0.81220212657381   12.17644770604406
C        -2.83409033725074   -0.20317419112803   13.06743287734209
C        -2.72151387141391    1.18349674782941   12.85389639832003
C        -1.80748625381372    1.35477713843802   11.83471319154820
C        -1.41346096964688    2.65552121068688   11.17860349818426
C        -0.67095227108921    3.53909602629709   12.20291213129574
C        -2.68431715077916    3.38668441608648   10.72123071011717
C        -0.49002455332589    2.43016736014105   10.00594765505157
C        -0.63637333524203    2.81303865659596    8.68963483628341
C         0.60308281551673    2.57458920029807    8.05584904442359
C         1.44891760045255    2.05106057568934    9.01281637033967
C         2.95660331461709    1.96766649204952    8.98196080053553
C         3.46969506437742    3.31180722636281    9.54198982285624
C         3.49475474227124    1.80437092946567    7.55073489350721
C         3.48238965099845    0.83725470944928    9.82838289624564
C         4.78628318244547    0.64949057768284   10.23587342811819
C         4.82989843840192   -0.59021207760006   10.90092871691366
C         3.55068484315263   -1.10329968992713   10.86112894749618
C         3.08478238601388   -2.44782633260980   11.36028729973022
C         3.18590315436078   -2.49254969921993   12.89812485104327
C         3.98932977912836   -3.54186882888285   10.77314413433092
C         0.91165283478398   -1.03898795327535    7.70773846698178
C        -1.34316769009801   -0.39138240611509    8.27147915126607
C         2.58818583004224    1.28118948438778   13.08584246472888
C         2.75893831675989    1.20595383152745   14.59982502547744
C         1.30972494788616    1.25395067070402   15.07628954753782
C         0.60094218103700    0.41815527966363   14.01365636775441
H         1.65772708622479   -4.35115467798771    9.51424629420059
H        -0.98929303020668   -4.26280336925710    9.81507577126632
H        -1.00649717230108   -2.72391865180446   13.86888027842900
H        -1.70969898673926   -4.12735197053163   13.05851602044833
H        -2.76486188390274   -2.91071895106329   13.78701338282949
H        -3.04103516349348   -2.28837396406020   10.09806304352095
H        -3.03132093845089   -3.83793529814168   10.95466313349455
H        -3.96667917472929   -2.48091243062695   11.58687707980232
H        -3.47696251400151   -0.67928369597038   13.78378957271517
H        -3.26071378826314    1.94966517058467   13.38021556381657
H        -0.43449122624821    4.50468337250755   11.75960096172576
H         0.25999969934752    3.05483736802203   12.49590436141207
H        -1.28843383840852    3.69845107068319   13.08489055889517
H        -2.42789584034022    4.32855119508616   10.24153479024099
H        -3.24225465044971    2.77187294072478   10.01881135834989
H        -3.32344434551823    3.59471325205787   11.57529371439572
H        -1.50537620063412    3.23793352042595    8.22178625982344
H         0.83080830976596    2.79383488298104    7.02795571864968
H         4.58201515452308    1.80263658298149    7.57204209209614
H         3.16494204162207    0.86425136729666    7.11433247220549
H         3.16413329282347    2.62485055438275    6.91854660434881
H         4.55604121522304    3.33860833335162    9.55070007715159
H         3.10395348116384    3.45239508044947   10.55721475654797
H         3.10359119223505    4.13116967042964    8.92685798297752
H         5.62085401736910    1.30588290369695   10.07442344052541
H         5.69954909637299   -1.04453322394815   11.33903877069364
H         4.20362464256518   -2.27326934642541   13.21539095946637
H         2.90873593238002   -3.48054501149134   13.26136854440331
H         2.50623432532831   -1.76058696604635   13.33191168286498
H         5.01043460973550   -3.40525588634974   11.11932147254596
H         3.99021067929190   -3.49293696295872    9.68669347012782
H         3.64496679284493   -4.52608451029146   11.08338963550704
H        -0.27080547650359   -1.88718650772874    9.12684025712799
H         1.10556807650926   -0.04429599887097    7.29830379353933
H         1.84255302889030   -1.45184349013946    8.10704944844774
H         0.54915304746879   -1.68747491195699    6.89737716010187
H        -1.17627018105908    0.60863098800629    7.86175868951630
H        -1.75691379966931   -1.03277302239627    7.48045270844702
H        -2.06400161488061   -0.31450089562545    9.09028305399216
H         2.50207791320322    2.32452651152751   12.74814778376267
H         3.40079546867618    0.78970509422672   12.54056398276285
H         3.36266972842728    2.02300836171315   14.98654935059601
H         3.22120605925273    0.25973945182270   14.88310959896569
H         0.94024661296827    2.27994724987392   15.06097391827284
H         1.17530251109281    0.84682129142150   16.07519542123890
H        -0.43389371327620    0.73737210474446   13.84691702358258
H         0.61391386464529   -0.65117324837261   14.26967757052331

