92
CSD_code = YOGKIO | q = 1 | S = 0 | Stoichiometry = C43H43FeNOP3(1+) | MND = 6
Fe        2.36009894822534    1.05094639474104    2.77995233312562
P         2.35194560634443    2.70164482783634    1.37655259140923
P         3.84605852823522   -0.27810121313427    1.94824037518393
P         1.87848035472427    0.17608826358044    4.69375956863492
O         0.12708455982037   -0.37630104706843    1.63715723380758
C         1.02864300430118    0.19768987919867    2.05049573551165
N         3.96643064863030    2.02117947109239    3.79703496947801
C         4.41279022628330    3.26458952331031    3.12662380700589
C         3.29969199025702    3.96048372896685    2.35634991836667
C         5.12083047923394    1.10594390436895    3.90240356772679
C         5.43906978233710    0.43370289501140    2.57244220834070
C         3.49840500136419    2.36584445178921    5.15747787671024
C         2.87551957489264    1.18206123197440    5.89583612568373
C         0.79629749271133    3.60826330198828    1.13139254676187
C         0.82382992628732    4.82314424932020    0.44621052616452
C        -0.33652538258813    5.55661272114468    0.29227452817528
C        -1.53169400522333    5.08521760198290    0.81502879386387
C        -1.56258948026777    3.88040542756789    1.49625911987504
C        -0.40171680033597    3.14292539544547    1.65688290940071
C         3.06529380669541    2.79683663561056   -0.29994537768967
C         2.21171805485454    2.67463705821053   -1.39421489622637
C         2.71714250025764    2.70810751254608   -2.67967057723088
C         4.08067344488386    2.83823290442995   -2.88741845346805
C         4.93746963870913    2.93626647294286   -1.80420850733238
C         4.43379532418551    2.91328676230422   -0.51680294433102
C         0.16042175696861    0.43861048084101    5.24722424763214
C        -0.72742610251544   -0.60838626168995    5.47042054945464
C        -2.03584478592675   -0.34188218614744    5.83744716591154
C        -2.46985558389362    0.96375772091550    5.98525311540335
C        -1.58936424200448    2.01192119212196    5.76466642011175
C        -0.28512082563119    1.75057190473282    5.39463188159744
C         2.12021468952861   -1.56019496861933    5.17529560349716
C         2.63536956289897   -1.99240988246478    6.39116461004635
C         2.68654903839345   -3.34735174568912    6.67301432077138
C         2.20650486644728   -4.27196247604519    5.76152092425608
C         1.67454359942382   -3.84524758164868    4.55444191863194
C         1.64096171428163   -2.49672281225048    4.25938233281824
C         4.10203125093002   -0.38512256691558    0.15373778220451
C         5.35022416698149   -0.66985992436855   -0.39190444124481
C         5.48527868065106   -0.81363324065947   -1.76011680803461
C         4.37844813483894   -0.70080514977665   -2.58622059444997
C         3.13204638177803   -0.43447901904881   -2.04526459180159
C         2.99544083671674   -0.26831568478808   -0.67948037216228
C         4.01617817030417   -2.05039609062006    2.34697810351166
C         4.73461919424876   -2.50960716504355    3.44649980003520
C         4.84768947683803   -3.86683352731683    3.68560431616085
C         4.23658180936151   -4.77705698062710    2.84018437630414
C         3.49547088709403   -4.32594753937289    1.75995997403414
C         3.38032721058831   -2.97079669783984    1.51653338085658
H         1.49837907328668    2.03676845515060    3.36802453145499
H         4.84471449776812    3.94834857651243    3.86840378435150
H         5.20478598918400    3.00353776497297    2.42520300478908
H         2.57330355903474    4.41317045606590    3.03799265254772
H         3.70968839766468    4.74542057750306    1.71589555337607
H         5.99303102054294    1.65011039627000    4.28968098840532
H         4.85753465549246    0.32372162481492    4.61665181220285
H         5.79943419313306    1.14661819432558    1.82631045835715
H         6.20471734330360   -0.33342975697447    2.70740074271932
H         4.33759751238975    2.76395988427250    5.74472198335986
H         2.75394873883268    3.15532682806387    5.04853207200273
H         3.65098583156637    0.54928213074839    6.33315504283207
H         2.23674194708087    1.54038129163492    6.70708405877763
H         1.75425057201452    5.18468288024053    0.02907672383696
H        -0.31102328300851    6.49711751034810   -0.23701376157665
H        -2.43723847704800    5.65884650967677    0.68979357607445
H        -2.49131412637602    3.51064293541253    1.90392724286796
H        -0.41947076630957    2.20825243350353    2.19829273672356
H         1.14835885470127    2.56217783441301   -1.23051497560229
H         2.04684683039311    2.63130711962144   -3.52236485500618
H         4.47570731268688    2.86343330420809   -3.89119067462145
H         6.00096263877866    3.03533882306428   -1.96297266207962
H         5.11393238644404    3.00226568963596    0.31833333818150
H        -0.40475083471347   -1.63280596261382    5.35923954761639
H        -2.71795713119295   -1.16131681912040    6.00509350023202
H        -3.49128300481152    1.16632643856276    6.26834597249707
H        -1.92204853794010    3.03295400303177    5.87700258014516
H         0.39241505604861    2.57178138461263    5.20323734722891
H         2.98097590635257   -1.28620547650813    7.13188369081069
H         3.09001301754851   -3.67979593921403    7.61775509399085
H         2.23808526316692   -5.32499663541102    5.99488329404462
H         1.28471232127949   -4.56219774786933    3.84831419093684
H         1.23399243287871   -2.14853326796079    3.31851317885650
H         6.21101635070374   -0.78771768709636    0.25069121624434
H         6.45508476890439   -1.02716816020545   -2.18355837686623
H         4.48751607456518   -0.82638247441851   -3.65239585387021
H         2.26752781313180   -0.35650491599056   -2.68670420316659
H         2.02965897551007   -0.04435906096134   -0.24428299183325
H         5.21313946488261   -1.81715158045856    4.12436116938281
H         5.41665661771342   -4.21410830947906    4.53491749705237
H         4.33553178636713   -5.83555749227225    3.02491094356702
H         3.01051585493765   -5.03188545536872    1.10271314099346
H         2.80318998997795   -2.61801445759466    0.67246769366524

