20
CSD_code = YOGKAJ | q = 0 | S = 0 | Stoichiometry = C9H5MnO5 | MND = 8
Mn        2.10752599603863   -0.06865902043523    2.71280614701122
O         5.04724001229073   -1.97623868424369    4.61735529837953
O         3.21172839326600   -2.73441957414968    5.65194697137955
O         4.27116880264086    1.85060825474919    3.19619630194836
O         0.54147813994149    0.74306000406667    5.05663633502084
O         0.64737509588331    1.61160789152883    0.80193081023879
C         3.72773071199138   -2.23173952227704    4.68489334848544
C         3.02184849878325   -1.88134311840677    3.44286046509790
C         3.61875698151514   -1.52822785385734    2.19547196880422
C         2.61179454542395   -1.54660072845137    1.21240889220066
C         1.38687890716098   -1.91558331574294    1.83585772075443
C         1.63724990623357   -2.12849034303839    3.20332378569734
C         3.39799731191353    1.13430552954223    3.00449692742053
C         1.15066411190400    0.46419293270794    4.12863147444246
C         1.22162590276278    0.98565362409658    1.57286518856269
H         5.47561774609508   -2.23103286955050    5.44889515757325
H         4.68136382799994   -1.42477743204242    2.02460549907769
H         2.77197246881169   -1.46000165679467    0.14593866072655
H         0.46661854657619   -2.15275187594163    1.31938061551373
H         0.95526409276734   -2.54976224175976    3.92909843166482

