64
CSD_code = YOGLOV | q = 0 | S = 0 | Stoichiometry = C30H30O3W | MND = 12
W        -0.56761952329409    7.37146033615488   -8.43724162681259
O        -0.27606963531903    6.31031129073042   -6.66756775316719
O        -2.35014334231626    8.00149165761447   -7.56153441486675
O        -1.66134465453499    5.70735883885559   -9.04897189623466
C        -0.23056023457021    7.48023974296159   -6.10457068709318
C         0.56151422684605    8.45234630571469   -6.72523311786058
C         1.43094204863794    7.91804403690389   -7.81462806267766
C        -0.98918819359726    7.66269725789602   -4.81186368360984
C         0.64422451743596    9.84143716180910   -6.25085770062328
C        -0.50921243825716   10.55225539713058   -5.90668070651346
C        -0.42649305520621   11.85839518062094   -5.46303131784870
C         0.80586399919624   12.48175828069879   -5.35207543645329
C         1.95549742764566   11.78994277700098   -5.69532904341333
C         1.87738021829557   10.48470381679561   -6.14327317377447
C        -2.79918228935561    8.05562649652248   -8.77946334850011
C        -1.98204396258502    8.67716439537534   -9.72994697246920
C        -0.81594725350411    9.40123873201121   -9.14366574981677
C        -4.17582903160235    7.49338167636884   -9.04172744548045
C        -2.32151121429283    8.74355667196123  -11.15884465460281
C        -2.78548581180358    7.61489841930449  -11.84053395604989
C        -3.10197717870920    7.68322619524703  -13.18401476693835
C        -2.96428015285780    8.87654725375553  -13.87436815645083
C        -2.50027579200808   10.00051659455610  -13.21139119548196
C        -2.17858095535856    9.93592316862378  -11.86878332903084
C        -0.53039339092309    5.07304400378095   -8.96754114552161
C         0.58598429787129    5.69020481470527   -9.54206249835424
C         0.25499296865502    6.88204137925101  -10.37745477072322
C        -0.53879241441310    3.71333869563069   -8.31108871950373
C         1.94182653902444    5.12730332397539   -9.46247391221464
C         2.44831122433296    4.64055085114393   -8.25408293099720
C         3.72238366565728    4.10949036958137   -8.18660695750662
C         4.51594918082324    4.05135934102246   -9.32081280965844
C         4.02772406899573    4.53630407242170  -10.52274683814997
C         2.75574938287987    5.07222694507672  -10.59411910538783
H         2.02865562965097    8.70550816554586   -8.27848547690479
H         2.09512806093214    7.12201582549952   -7.44602617589979
H        -2.04859578344644    7.81186356984245   -5.02064654072989
H        -0.88885331708073    6.74884426155276   -4.22714404225054
H        -0.60812814315722    8.50864710029388   -4.24587101435581
H        -1.47435354297488   10.07615037105369   -6.01465915998015
H        -1.32769942354655   12.39613626020348   -5.20549647177500
H         0.86893362759480   13.50181001420595   -5.00331930410510
H         2.91919923539426   12.27101566614201   -5.61163372841142
H         2.77895479340454    9.94852214417882   -6.39912586756370
H        -0.19866005825518    9.86622571116968   -9.91522954611851
H        -1.13850013697167   10.16609026384073   -8.42148821784746
H        -4.12425524315444    6.40771908415477   -9.12406633349508
H        -4.80969603416719    7.73460975524304   -8.18912136340210
H        -4.60446063859999    7.90622259639322   -9.95117450994479
H        -2.87196698062101    6.67639204733716  -11.30995797845790
H        -3.45472332745784    6.80068667833926  -13.69815245303691
H        -3.21414569233726    8.92870619425547  -14.92363125252118
H        -2.39022866352021   10.93364942578066  -13.74460826333973
H        -1.82735014737919   10.81898144952399  -11.35629838955882
H         1.15094487312260    7.33993467033218  -10.80196995322960
H        -0.44431618908449    6.62477703649341  -11.18702548223830
H        -0.54906853505934    3.82474790629703   -7.22681943002857
H        -1.45438240628753    3.20036281360303   -8.60347255976794
H         0.32611838747672    3.12579170829847   -8.60723999922452
H         1.83928369787477    4.70509410202994   -7.36257586336763
H         4.10150546282278    3.74124905242766   -7.24410806422467
H         5.51016258597017    3.63332174422774   -9.26698874292832
H         4.64221015085453    4.49421035111780  -11.41033004063935
H         2.37787451621584    5.43842854941578  -11.53694589086699

