64
CSD_code = YOGLIP | q = 0 | S = 0 | Stoichiometry = C30H30O3W | MND = 12
W         5.03550908882710    2.13678315404759    0.96128962796928
O         3.35154327711314    1.78195029165978   -0.16766269596302
O         4.26086046226875    4.02871153879203    1.20367770588039
O         3.85092543558478    1.63631772491507    2.56873875240578
C         3.85194890044251    2.64776618085046   -1.01746390825691
C         5.19244540224233    2.46571440296709   -1.35531825323078
C         5.76027662446238    1.18675832653636   -0.85169355596459
C         5.99032715147650    3.37186867501895   -2.25846470124649
C         2.94598360551488    3.70052697628664   -1.53130079959440
C         1.96905621760024    4.22121665449272   -0.68324635729404
C         1.07642768289849    5.17207701377392   -1.13607626585693
C         1.13076462321610    5.60555244437898   -2.45105752339353
C         2.07658033385853    5.07206336766034   -3.31013947007039
C         2.97754472396418    4.12445583942325   -2.85873499087109
C         4.91429145879273    4.04855434758253    2.34162892546975
C         6.24761909048368    3.64378021621301    2.28647742992551
C         6.75362805226916    3.46325416430889    0.89979091019986
C         7.16849139371029    3.52473408926443    3.47447185197256
C         4.17913857309398    4.50546250086720    3.54326905288398
C         2.82289976949048    4.20207287888980    3.65878147380562
C         2.09159276415208    4.64297034182142    4.74356117431705
C         2.69760392071709    5.41288867903610    5.72333907773046
C         4.03568598285798    5.74756307635468    5.60197424013663
C         4.77393647718225    5.30195589818810    4.52037576722674
C         3.82684702058828    0.42937617303783    2.05405286339639
C         5.06177421012756   -0.09600857368205    1.67476832295919
C         6.21618075127554    0.72927024560929    2.11940671718791
C         5.26900316206909   -1.43108857352535    1.00541786360761
C         2.50993838448791   -0.23858784891496    1.94232305588357
C         1.38412621754507    0.53730009141534    1.66740807090673
C         0.13198117581142   -0.03891838187130    1.59089810248999
C        -0.02131770315602   -1.39879881808355    1.80831385423343
C         1.08497958280152   -2.17274037740000    2.11533335376576
C         2.34251585830980   -1.60076593999847    2.18579554969621
H         5.16608985120945    0.33160597476909   -1.21306532900551
H         6.80462567557378    1.06334461363232   -1.14752110013190
H         5.62155832001787    4.39575293454178   -2.22576297509787
H         7.03869624482342    3.36283556466622   -1.96343556606357
H         5.93842895560829    3.01603687205953   -3.28939933073536
H         1.94042474367487    3.88382680918105    0.34186688050116
H         0.33391107324651    5.57721119902866   -0.46385719003283
H         0.43302389239183    6.34929274026645   -2.80742522815733
H         2.11006321945853    5.39216582023130   -4.34168935297401
H         3.68528745335525    3.69180665990985   -3.54782963637419
H         6.62122216888059    4.38907177896242    0.31642812333311
H         7.80455872747008    3.16520449263147    0.88801100262530
H         6.61879240339498    3.29727735225844    4.38634429658999
H         7.90375862802574    2.74068666119883    3.29870320451929
H         7.71564216002985    4.45809529837267    3.62149797730832
H         2.36172518684574    3.59415052708465    2.89507939693516
H         1.04508928318485    4.38771908153092    4.82728739789047
H         2.12727445666039    5.75847027271070    6.57321244065873
H         4.50772836417324    6.36479030502920    6.35291088755391
H         5.80550813045772    5.60003582033970    4.42086275168259
H         6.19183417842355    0.87151799573044    3.21214275237721
H         7.16935443430593    0.28411812978977    1.82493367703513
H         4.40603446979372   -1.71726913440190    0.40637494776932
H         6.14887426231961   -1.39375837513811    0.36458147383929
H         5.44417917927766   -2.20497251437893    1.75544683462529
H         1.51474160797346    1.59432803823528    1.49079727744664
H        -0.72911233893187    0.57220158606202    1.36195309495347
H        -1.00013191152108   -1.85187183453912    1.74802400699389
H         0.96762489247096   -3.22987518098959    2.30614977731112
H         3.18928261532449   -2.20923626869387    2.46074228431602

