49
CSD_code = YOGMUC | q = 0 | S = 0 | Stoichiometry = C20H26Cl2Zr | MND = 12
Zr        0.88659140079192    3.47444207889163    3.15324337965005
Cl        2.61114475713595    2.51693015402982    4.39842918387962
Cl        2.29513404749779    4.99797763523927    2.11507640181135
C         0.22339701308931    5.25178766575673    4.85784474811639
H         0.76675116546861    6.15048903225498    5.12365614992476
C         0.23653410521698    4.04425415599100    5.58611953847780
H         0.81016794796534    3.85470358971694    6.48442921978111
C        -0.70373773605632    3.16298846472039    5.01095251090300
H        -0.96976446516429    2.19406649576791    5.41580930432028
C        -2.11576714401369    3.22138662708462    2.78428332829098
C        -2.78346950716632    4.33854575310012    1.95567334720027
H        -3.07030632697956    3.92896389678511    0.98404326983778
H        -3.70468529772260    4.62198283490209    2.46965585667821
C        -1.95336745016391    5.61011561703829    1.73058835763272
H        -1.11037332789954    5.41721649016648    1.06463877958343
H        -2.59661593574184    6.34188558317678    1.23488517020391
C        -1.37804857637440    6.23724714845709    3.01128022046540
C        -0.75908146623301    5.13724975816908    3.83685415192884
C        -1.34600814460345    3.84466161332969    3.94230619091209
C        -3.18981667456398    2.23201285379681    3.25152849878403
H        -3.70856113464603    1.81231493174403    2.39242421531882
H        -3.91565076162474    2.73506533267045    3.88667200255547
H        -2.75163162495501    1.41550194174999    3.81815341042786
C        -0.34865875823950    7.30500221461796    2.62719685750063
H        -0.79392682891138    8.02376338349498    1.94204430710806
H         0.51638679180428    6.85068276871247    2.14343890725525
H        -0.00939694052140    7.84552311642668    3.50744571882094
C        -2.49263636069636    6.88843631781222    3.84706794050720
H        -3.23687015109667    6.15233476316665    4.13859767589226
H        -2.98044915102015    7.67697113685011    3.27822267265807
H        -2.07560385412779    7.32145335162062    4.75291997315663
C        -0.99046380014186    2.50663573661767    2.02785973626619
C        -0.22127337191875    3.04315105106333    0.96329945360644
H        -0.54449101378283    3.75327837063829    0.21638725790851
C         0.97821879199785    2.30405889247471    0.85503298064720
H         1.70694981621408    2.42460819406244    0.06430872089222
C         0.98405124899376    1.30957647096468    1.85729254677951
C        -0.22648557506607    1.43574695889439    2.58677299367564
H        -0.54965619290894    0.73972988043136    3.35359953581054
C         2.02071883000223    0.22876637879422    2.03694891289094
H         2.07103013427025   -0.03607028119713    3.10176162851750
C         3.40123829750406    0.71576987650338    1.59007415757773
H         3.43681407672194    0.83195172317274    0.50877240154154
H         4.16264151809337   -0.00510818037956    1.87805879154526
H         3.63802485945637    1.67382052060248    2.05702890718740
C         1.60788136035249   -1.01718096349623    1.24346847477131
H         2.34153340771920   -1.80887095637170    1.37374135835704
H         1.53605961495327   -0.77963087185880    0.18439039381001
H         0.63982838703682   -1.38128950817231    1.57912045850999

