54
CSD_code = YOGSOD | q = 0 | S = 0 | Stoichiometry = C21H26Cl2NO3V | MND = 6
V         1.05018340709394    5.58105357468489    3.42199943540475
Cl        2.14625739401162    5.47088531340915    5.52169863864619
Cl       -0.06724445258070    5.62237678860447    1.33592921220621
N         2.59979324450045    4.94850315426734    2.61789662684307
O         1.57589805562445    7.05979452934521    3.21279158645805
O         0.21721375565884    3.85418668938484    3.83824111267966
O        -0.95753207105999    6.26289501022611    4.50303823142373
C         2.55106545331684    7.79427005390328    2.79821718954116
C         2.57762978080556    9.19315423191599    2.85038830837790
H         1.72497464979433    9.71918900672226    3.25705599208521
C         3.67888253083225    9.88102972869996    2.38702982241740
H         3.69300765072624   10.95930355979693    2.43018532909855
C         4.77213138622165    9.19184069598696    1.86529445075556
H         5.62821736164919    9.74301393204644    1.50702715900771
C         4.76680178476595    7.81700275019541    1.80372378050295
H         5.61517268736791    7.28496193441846    1.39856608119658
C         3.66641488989210    7.07891363257809    2.26246112538408
C         3.61952415271212    5.65737638595466    2.21530961318805
H         4.48552205934181    5.13799271921743    1.80575077515854
C         2.72548908673049    3.55091769578797    2.52189416780356
C         2.00414888696122    2.85006659577682    1.55777804290578
H         1.35544904241899    3.39451076443608    0.88423830904657
C         2.13530007107791    1.47539563182466    1.47155104466665
H         1.58630325418770    0.93259128497972    0.71568018786020
C         2.97068791891780    0.79430532481073    2.34350667773397
H         3.06531186629085   -0.27934977819671    2.27385017244017
C         3.68823024370726    1.49278169715094    3.30129106500423
H         4.34146193192650    0.96534431727087    3.98050345664889
C         3.57842650468304    2.86978069870187    3.38800582657948
H         4.13059339779778    3.42840414361775    4.13164331475683
C        -1.02963449666054    3.40357009317358    3.33055886906837
H        -1.15910818312947    3.81384942019878    2.32655555784549
H        -1.83439002880776    3.77122195722957    3.98687573250880
C        -0.95620488568899    1.87454444190030    3.37106165824119
H        -0.55076576200634    1.49257876548267    2.43493164651659
H        -1.93772678310739    1.43287016260649    3.52931227144521
C         0.01223553655781    1.60227255435610    4.53240752549371
H        -0.47223268719764    1.09435826285001    5.36400777390216
H         0.85557352218066    0.99627246969649    4.20355950220108
C         0.48182723014909    3.00484793187802    4.94511005054691
H        -0.08563503710678    3.37048385946170    5.81392360840917
H         1.54598924253827    3.05392820647350    5.17820462899089
C        -0.78622958974502    6.96727281338752    5.72326790572189
H         0.06440824538358    6.53795803886439    6.25410088058633
H        -1.70204238645495    6.85740140071328    6.32630539618624
C        -0.57936966682427    8.43224718184180    5.31572668658675
H        -0.99172407696199    9.11571687450205    6.05562348939552
H         0.48778017339549    8.63318874687826    5.21044556833488
C        -1.30009175854781    8.52247180854695    3.95635978489500
H        -0.60520653926182    8.78623397724116    3.15794588512637
H        -2.11430994622865    9.24491931315736    3.96155262433569
C        -1.81815675382478    7.09344055049613    3.73900186212853
H        -2.84454355967336    6.99025456303580    4.12676910386179
H        -1.78075773472246    6.76630453826410    2.69914525198225

