71
CSD_code = YOGTOE | q = 0 | S = 0 | Stoichiometry = C32H26ClF6N2O3V | MND = 6
V        23.03537344581138    5.73453290697269    5.98073188749023
Cl       23.11082914891300    3.47835315203712    5.96732087014075
F        18.36657726612563    6.52496925832618    0.12467977133910
F        20.42654565369227    6.18675213676548   -0.38640961077642
F        19.10288221289287    4.51676444710554   -0.09974986325409
N        21.07839303381736    5.75197988979787    5.79839037078036
O        23.27280781156024    5.90723338315959    4.38106776081371
O        22.75476673661942    8.24990516332120    6.03332534111674
C        19.41480086581621    5.72687896101065    0.38459375055737
C        19.78927002208585    5.70531548986823    1.83648108885193
C        19.58410768036164    6.83869242715737    2.61357555716696
H        19.11531980970927    7.71031359415805    2.18204597822805
C        19.97889028358667    6.83892392552656    3.93705596046202
H        19.83721993073987    7.71944598083445    4.54856489462503
C        20.60581343330718    5.71862934805151    4.48728945316664
C        20.79835977447181    4.58027411518947    3.70043603939611
H        21.27947663239211    3.71356567895749    4.13421026013589
C        20.39215077064918    4.57556242156762    2.38124410483048
H        20.54401861970283    3.69978615423088    1.76884513892243
C        20.21768003939171    5.97791552950934    6.74531260286099
H        19.15735382930512    6.05948255666452    6.48862196303720
C        20.55379827531416    6.11068204911932    8.12239169002271
C        19.57721047809684    6.31490448402087    9.10882652869311
H        18.53969750539460    6.36509078105943    8.81010241493974
C        19.92699342053470    6.44902370229221   10.43150991888737
H        19.16523130609181    6.60528201663159   11.17973478334819
C        21.26740317824689    6.38109099336595   10.81291472554175
H        21.53562808085111    6.48460085268787   11.85329870903382
C        24.13314480600054    6.10397775560510    3.44204476880709
C        22.25370107423697    6.18464322646734    9.87307915393436
H        23.29469349889504    6.13008847941507   10.15901792486702
C        23.18068312857884    9.00666278317591    4.91143838478257
H        22.53522906202391    8.74667723628451    4.06931757339323
H        24.22136298530416    8.75751723943705    4.65192270003270
C        23.07464281377959   10.46253794095098    5.35394027678812
H        23.68156974582179   11.12876944795640    4.74652740377223
H        22.03556929809988   10.79069711533523    5.31759405073717
F        27.83090060165041    6.68042442019152   11.77947906723897
F        25.78228693566871    6.33687161591076   12.33206522499257
F        27.10573709002373    4.67049143194790   12.02434226365264
N        25.00259543954309    5.87078557562368    6.16248396477191
O        22.79511365662827    5.87107325702453    7.58441554280589
C        26.78057223932882    5.87871219880180   11.54320131035496
C        26.37660585223033    5.84998509556386   10.09918721308749
C        26.60177421816820    6.96278909158434    9.29932582229332
H        27.10838919962069    7.82565509096447    9.70460431833772
C        26.17798304280792    6.95408208946341    7.98456524855072
H        26.34531000248343    7.81967025374416    7.35743365857639
C        25.50217573164706    5.84698416109387    7.46493522237499
C        25.29569614597513    4.72644760079015    8.27414937299502
H        24.78744848889020    3.86460777123332    7.86190196552102
C        25.73004153424516    4.73037536289957    9.58413276736343
H        25.56781899104992    3.86780467437334   10.21246675862984
C        25.85171025546951    6.10073159991536    5.20220217496186
H        26.91382078324047    6.19540155017462    5.44730538693211
C        25.50210829519629    6.21653266871299    3.82715926057256
C        26.46664917506366    6.44198584935284    2.83311678547555
H        27.50373088523220    6.52735798248169    3.12542162051807
C        26.10496628674749    6.55226515629500    1.51150476339108
H        26.85740899318750    6.72473434555129    0.75748297084867
C        24.76539533623706    6.43782102209243    1.13874308203614
H        24.48799267309301    6.52121572608355    0.09905659734833
C        21.92277280614378    6.04500708026410    8.51595597872168
C        23.79063837397177    6.21961567103505    2.08619193580699
H        22.75061699242415    6.12833458378374    1.80719374006850
C        23.04974123357775    8.97610110419860    7.22612355152151
H        23.79211827750968    8.42969156449776    7.81928618990417
H        22.12202580242940    9.03857913766964    7.80805521803445
C        23.55440560881794   10.36206150921474    6.80136327807340
H        23.15714592264624   11.15100810388713    7.43526155307219
H        24.64340747081937   10.40047302958275    6.83979186369463

