54
CSD_code = YOGTIY | q = 0 | S = 0 | Stoichiometry = C21H24Br2Cl2NO3V | MND = 6
Br        7.21798620806234    4.67967216609340    3.46366012926519
Br       11.88004763879442    4.16988797633920    0.26934636492971
V         6.71516666253261    0.21928569668727    3.54268768823796
Cl        7.83046844673552    0.03233284452865    5.59653784636109
Cl        5.48912588910850    0.29299627141958    1.53198730612310
O         7.37040951137863    1.64173231050213    3.22781346240428
O         5.63330978195550   -1.32930479893183    4.01777796360155
O         5.04216561122829    1.33262867576785    4.61837675004262
N         8.10808576648890   -0.59305649995091    2.63626251545924
C         8.32674506011688    2.23173991715612    2.61054022831526
C         8.49273072814769    3.62181477504872    2.55477566360923
C         9.53468702050639    4.20702450719269    1.86991111687702
H         9.64523970807396    5.27935733886284    1.83957536105648
C        10.44029198706722    3.37286944185086    1.21550459174457
C        10.32196602759288    2.00168908621884    1.23394873232206
H        11.03881738839821    1.38427030842429    0.71449555092687
C         9.26550759827918    1.39397190539551    1.92890677922188
C         9.08103799934709   -0.01223803020226    1.98048029484556
H         9.80045941823651   -0.63434226151064    1.44991136575067
C         8.04613252035983   -1.99479172512502    2.54248266228328
C         7.78388301454515   -2.59527494486842    1.31183669951285
H         7.61990586437999   -1.97093811384336    0.44411415229455
C         7.70375877815723   -3.97404758749181    1.22309315785026
H         7.48843903099080   -4.43568339099238    0.27117750781155
C         7.90664736331944   -4.75817839907577    2.34717124064854
H         7.85247907764769   -5.83398343766788    2.27189518699252
C         8.18382711429815   -4.16033428319705    3.56705373037457
H         8.35522820292993   -4.77210754833168    4.44075008772239
C         8.24862600169027   -2.78233817997930    3.67425438854782
H         8.47061277800805   -2.30335286739079    4.61916390598723
C         4.81049232673902   -2.12207417851617    3.17210374970749
H         5.29079469540989   -2.21004331425993    2.19703817837930
H         3.84523510351329   -1.61212524669454    3.04070605971660
C         4.62774754147281   -3.47084448386915    3.88473041362348
H         3.59835885016770   -3.81513791001449    3.80257871755897
H         5.27862813619330   -4.22844464591794    3.45032997310494
C         5.02304010639186   -3.16692615691957    5.33779704494085
H         5.96261843559231   -3.65582865258309    5.59148124234576
H         4.26620175339563   -3.47674287327617    6.05471079483190
C         5.20914317162986   -1.64878236104034    5.33467478286758
H         4.25428658762287   -1.13765975099273    5.53481589099481
H         5.97277125185379   -1.30006466526825    6.03310165141708
C         4.13654534900715    2.08979023166481    3.82434022036836
H         3.57981237089933    1.39391924715887    3.19353697007155
H         4.68957809924638    2.79180432927501    3.18410388230142
C         3.28868933818927    2.84350052867995    4.84101243089498
H         2.77704111404068    3.69661369131515    4.40434231678030
H         2.55103280961844    2.17263635299911    5.28481704502209
C         4.34636232305646    3.24597242160234    5.87010472853068
H         3.94406079628935    3.31100047658501    6.87844001118318
H         4.78171335531656    4.20908812515956    5.60462818330773
C         5.40284179568278    2.13633935723164    5.74538979193623
H         6.40410714016745    2.55812477707199    5.59503788560575
H         5.43330935013354    1.47398354768780    6.61618560338633

