71
CSD_code = YOGTUK | q = 0 | S = 0 | Stoichiometry = C32H32ClN2O3V | MND = 6
V        -1.03668062325959   10.50029966082513    3.72114899054688
Cl       -2.03926409847042    9.49623890468697    1.95995483593941
N         0.25130063133749    9.01271820507153    3.94248849293020
N        -2.24947987248651   12.05733184315564    3.61001890463526
O        -1.94138858613305    9.77341713081876    4.86082952743365
O         0.02111484284949   11.36932391466826    2.84601658284538
O        -0.05161507745045   11.82186152134946    5.65537123698144
C         0.17759604940171    8.07168865885804    4.83842000877615
H         0.97547286242677    7.32348232382554    4.88795873993138
C        -0.88885549443200    7.91967569570433    5.77184055513603
C        -0.89660814814850    6.89499308012180    6.72931665766193
H        -0.06684892618291    6.20234640474692    6.75673090602012
C        -1.93470661569812    6.76948830336539    7.62287875849716
H        -1.92459256097635    5.97681061585978    8.35554717843798
C        -3.00602035211271    7.66148732794836    7.58356826788981
H        -3.81926090976945    7.55269407119190    8.28563675034753
C        -3.03465379580578    8.68029903648113    6.65708064040265
H        -3.85954118699039    9.37827251409665    6.61124008828936
C        -1.98363749274505    8.83337972910640    5.73990834950599
C         1.40934875264052    9.03915744352000    3.15197149351137
C         2.67746487978156    9.04050599545349    3.73328038802063
H         2.77835630349441    9.00000047666664    4.81024516625524
C         3.81147351988630    9.12997454980523    2.94569599673184
H         4.78346562562666    9.14919982848972    3.41880065576837
C         3.71752362147727    9.19638736522002    1.56281360306543
C         4.94135837378447    9.28306330676251    0.70239751161423
H         5.10855554952876    8.33366492927956    0.19343499791015
H         5.82225721452226    9.51228125590625    1.29711565584908
H         4.82121060968875   10.05057770735332   -0.06016155861192
C         2.45049692136376    9.16606909602009    0.98651405331806
H         2.35764764801210    9.20690729276295   -0.08943711623512
C         1.30985225468829    9.09213485752219    1.76028042237469
H         0.33250306914551    9.06619442729113    1.29777120494741
C         0.27378590496985   12.51417114702013    2.31732577901616
C         1.47461014110594   12.81306446795010    1.65502849859400
H         2.22388895864039   12.03696662222108    1.57828706450979
C         1.67690439077669   14.06336052599032    1.11555701874200
H         2.60323279644010   14.28359380504764    0.60576342414179
C         0.69601287398655   15.04915207939315    1.22254555199020
H         0.86967746054515   16.02550735029721    0.79591255916205
C        -0.48894569128587   14.77863555719299    1.86588809411933
H        -1.25129857871228   15.54083145360493    1.94836301807657
C        -0.73338314834805   13.51671820117870    2.42550960992649
C        -1.95286709478556   13.21268645785032    3.09752511260636
H        -2.68514922572992   14.02391744339415    3.16259100815617
C        -3.46520005400501   11.96123609392679    4.29726464333955
C        -3.77258441369112   12.84872339496309    5.32830136997640
H        -3.06998151718034   13.63141682474549    5.58364991426453
C        -4.94566463360049   12.70743228915362    6.04814050021667
H        -5.15770517473560   13.39412214240838    6.85597607458885
C        -5.84995033081980   11.69799361196950    5.74820823245802
C        -7.12818410214085   11.54428448972715    6.51559780225586
H        -7.27858465892886   10.50633351260758    6.80782900107025
H        -7.97466540439088   11.83952762266866    5.89549769146425
H        -7.12522304224121   12.16428385211203    7.40879618408319
C        -5.54803588145997   10.82971211284955    4.70223348293482
H        -6.24480224712428   10.04259859138320    4.45100915035928
C        -4.37481484210365   10.94943994254275    3.98465132830647
H        -4.15186142514643   10.26840083438278    3.17409160413927
C        -0.71082322514455   11.86303604482138    6.90663590573535
H        -1.75585616972876   11.59392265549755    6.74926843318838
H        -0.65707103612281   12.88771475657767    7.30650914513433
C         0.04009566360387   10.88757585424829    7.83245399313247
H        -0.51571544991511    9.95831182867627    7.95151399270302
H         0.19163879749377   11.32692796013697    8.81698975695328
C         1.36977292251435   10.64581665695708    7.09859040127559
H         2.23735483296505   10.79746612763500    7.73745206339533
H         1.39793508976312    9.63143447716141    6.70031956451951
C         1.32006233462234   11.66360958636271    5.95240966338633
H         1.73621411572928   12.63003203187913    6.27978868254209
H         1.82893607514373   11.34071411964902    5.04344673273532

