101
CSD_code = YOGVAS | q = 0 | S = 0 | Stoichiometry = C42H52ClN2O3V | MND = 6
V         6.67531843278242    5.11555119578038   10.92862676507151
Cl        6.71399698328280    4.93982924229885   12.97744951647415
N         6.65558257281295    3.20529627163664   10.63584965327477
N         6.75701860272378    7.36013816410208   11.19998487265207
O         6.22303732475045    5.32401796619815    9.39616661730059
O         8.56801946339826    5.20647699347940   10.52798208115212
O         4.07520182289460    5.22158677609219   11.16358953409306
C         5.92929617903216    4.73430045746835    8.28711976755597
C         5.98213651764163    3.30945749215596    8.30200947280217
C         5.66590122926852    2.61926215693583    7.12239616483503
H         5.69863322675951    1.53871915150424    7.12840378852228
C         5.32105880775941    3.29587931376728    5.97504008796696
H         5.07938653419875    2.74779264292208    5.07689258722148
C         5.29095972007041    4.68859944698853    5.96316518421846
H         5.03103603867377    5.21344756650718    5.05605627452487
C         5.59254957738734    5.40224067614752    7.10427801729715
H         5.58456887761788    6.48291751330241    7.10268992260583
C         6.37201543848679    2.63585727585426    9.49313623761815
H         6.45194968894249    1.54837127522074    9.42512954106628
C         7.05343045661679    2.27806923700315   11.64218850689212
C         8.38231145299886    1.83655197000245   11.70534219261591
C         8.73619498875930    0.90179865251099   12.67068800220096
H         9.75890536702291    0.56185200617948   12.72853770911089
C         7.80389979435591    0.38553039020249   13.54545515211442
H         8.09545495348087   -0.34434591318491   14.28636713998303
C         6.48910519723173    0.79722501432614   13.45484043783773
H         5.75866541984908    0.37075122255365   14.12354333833423
C         6.09450215377252    1.73604428178970   12.51294576963551
C         9.44543742964505    2.32793365660692   10.75017358415468
H         9.00497666717106    3.07497967128082   10.08400468665472
C         9.97731973556600    1.17539865111449    9.89395927235069
H        10.45427884147733    0.41542377466253   10.50882210863497
H        10.71110611374148    1.54654828618582    9.18119772158238
H         9.16745357413353    0.70652241227005    9.33815964510373
C        10.57576641831709    3.00411391493726   11.53011158495198
H        10.17243385408152    3.84017373153135   12.09811606818020
H        11.33449515717096    3.38328888145926   10.84887691357342
H        11.05325515557485    2.31121572646529   12.21911726988272
C         4.63783642510401    2.12110116695435   12.39369623974699
H         4.59963130555040    3.09769382258096   11.90410614220921
C         3.90368484816716    1.09528613428391   11.52228842195311
H         4.31269897554393    1.07695921969615   10.51423818517405
H         2.84424966616668    1.33798478363800   11.45779568589871
H         4.00136750581313    0.09899207970331   11.94998190293035
C         3.95106117259585    2.23865461000414   13.75558225890760
H         3.83595288191411    1.26614582946660   14.22862964376554
H         2.95496123298751    2.66237896748563   13.63775482565182
H         4.53181559862516    2.88151922094419   14.41328207705255
C         9.22597780745416    6.16991666164704    9.99189256849101
C         8.94123851148472    7.55602273441190   10.15828373572651
C         9.81583826202924    8.51410640037270    9.61819559678196
H         9.59255663784076    9.56110837842824    9.77775951267528
C        10.91715252423382    8.15700128603499    8.88301241258396
H        11.56873962093609    8.91017794497543    8.46750041097463
C        11.18096540863694    6.80254772220896    8.67302379498368
H        12.03715047651460    6.50978252345056    8.08201102559804
C        10.36678874987780    5.84205180908303    9.21212250110858
H        10.57181759833753    4.79357108371571    9.05602469624341
C         7.78782198726327    8.03384247219597   10.85304530811708
H         7.80194195102619    9.11384445199766   11.06403869424927
C         5.72259807817760    8.09563036961969   11.81815925101790
C         4.63601321940888    8.52304255761269   11.03448489348018
C         3.62949972152384    9.26349746314580   11.63581162738111
H         2.79381279326654    9.61168111546105   11.04973782477735
C         3.68766326306210    9.58412463150351   12.97991542035561
H         2.89445000327793   10.16043491367249   13.43315497523613
C         4.77488167175866    9.18912351663084   13.73249681459945
H         4.82741262762601    9.47198686451103   14.77241443919150
C         5.81388491384333    8.45724579906744   13.17019817879980
C         4.60705954480849    8.22018934872859    9.55280215768895
H         5.06729680441723    7.23538980939980    9.41616494148523
C         3.19470757117942    8.18392226131616    8.96612537418555
H         2.52186145732805    7.60770741278095    9.59550756787113
H         3.21768537803272    7.72479501906032    7.97897713991417
H         2.79155745969379    9.18885147042274    8.85446326901923
C         5.43657510440753    9.25847672928775    8.78575424451806
H         5.09882816081603   10.26506482399924    9.02858989721368
H         5.32421448654123    9.10954303236568    7.71303651616294
H         6.49326618691795    9.17809452129595    9.02856915113588
C         7.01980240154722    8.11134611168053   14.01490740434068
H         7.66372300934790    7.42404748883203   13.45603554987797
C         6.61684298514623    7.40719356061050   15.31165882261022
H         6.03518512575391    8.06026045081561   15.95780384510117
H         7.50873752083572    7.09847238891990   15.85205226863809
H         6.03296138595222    6.51946797456077   15.08390469887798
C         7.81954278645549    9.38104205878412   14.32421885380326
H         8.15023768159087    9.86642718698235   13.40812801291958
H         8.69787876390068    9.13322793951972   14.91608386131954
H         7.21403016130317   10.08970581040438   14.88549223857545
C         3.42972215362156    5.61809302586566   12.37366919963930
H         3.86750931330606    6.56165850983291   12.70036331635070
H         3.61150145639072    4.86243450378628   13.14643307177564
C         1.94395050489972    5.72099845526048   12.04568001833317
H         1.31831192358469    5.58060874021576   12.92375862855403
H         1.72031995665185    6.69390950136636   11.60644796589283
C         1.78345051855518    4.61058914183026   11.01010526085583
H         0.93405101210821    4.75968294127835   10.34722232856954
H         1.67540837458254    3.64644436595681   11.50788557587127
C         3.11559075707089    4.67616252491215   10.26067264267913
H         3.45409591033546    3.69198161828565    9.91880107015211
H         3.04676893389210    5.33573759088725    9.38633285092567

