79
CSD_code = YOGVUN | q = 0 | S = 0 | Stoichiometry = C38H34Cl2P2PdS2 | MND = 4
Pd        7.95006214274309   -2.70770402658138    4.53683394671856
Cl        1.56329037412468   -2.74024488267470    1.66556466446989
S         7.77134805768076   -3.04893374279427    2.23173209013991
P         7.74279474017788   -4.90578725303572    4.99948529529730
C         6.04162176271412   -2.98670833684879    2.10862690500843
C         5.45753097612529   -2.89588145130142    0.84346648413382
H         6.09689242220798   -2.87324354378975   -0.02580308601594
C         4.08825779152063   -2.82555080075336    0.70408719055466
H         3.64255776142325   -2.74523385856774   -0.27519334811249
C         3.28418718935309   -2.85381794688319    1.83352625432127
C         3.84131952748904   -2.95874153985441    3.09644494836484
H         3.20643774309117   -2.98487354775356    3.96868334358598
C         5.21371227330533   -3.02053289994251    3.23360899402882
H         5.65057284744516   -3.08256782692957    4.23958246009440
C         7.34994124134581   -6.09870708956300    3.66317115854278
H         7.98450485075349   -5.90046690635298    2.80041386695291
H         6.30886565436107   -5.95701288716800    3.36876573900890
H         7.50021950802920   -7.11980159263103    4.01182297515970
C         9.41994574906823   -5.38350791339941    5.49886277309517
C        10.40363550738391   -5.23758237581242    4.52014089697738
H        10.11701648602357   -4.91676303176628    3.52158344256481
C        11.72732011296072   -5.48451339009212    4.82792549144810
H        12.48791483293527   -5.38264616897665    4.06777918311642
C        12.08120697418231   -5.84369201982630    6.11948922651385
H        13.11726275529048   -6.02313265754036    6.36431437203943
C        11.11129578876626   -5.94879913645458    7.10140531223323
H        11.39161270379313   -6.20330479930182    8.11279175608954
C         9.78062909538705   -5.71816398896814    6.79757904754267
H         9.02593600851176   -5.78154467685150    7.56905017493891
C         6.62117349171509   -5.45761167070674    6.31479240549592
C         5.66704517499945   -4.57844713214008    6.81270220730576
H         5.64407087863911   -3.55313818337670    6.45648780951114
C         4.77257525484622   -4.99943337729211    7.78017285926882
H         4.03502855483414   -4.31261407940642    8.16785549772798
C         4.82747311410064   -6.29954579340907    8.25358728473319
H         4.13209870088176   -6.62857211158036    9.01159078029231
C         5.77674380000965   -7.18027491996100    7.75877853183370
H         5.82044380127221   -8.19345071253459    8.13121656569446
C         6.66977554137381   -6.76522243520619    6.78888610149699
H         7.41265523399451   -7.45141717570118    6.40507324127878
Cl       14.33726314515856   -2.67631083549001    7.40575847937021
S         8.12905699297858   -2.36272059752312    6.84208419872470
P         8.15773936265605   -0.51177257895796    4.07172557558389
C         9.85888417908432   -2.42971948864285    6.96388554077589
C        10.44331024086818   -2.52003977234565    8.22879947489238
H         9.80414332804695   -2.54234341577226    9.09820209261339
C        11.81256729685009   -2.59048140690604    8.36780603194890
H        12.25845917355440   -2.67092884006445    9.34699287210332
C        12.61635925271983   -2.56235497556499    7.23817804560873
C        12.05892638603546   -2.45730715620307    5.97541808291337
H        12.69361260573080   -2.43123021213302    5.10303695021659
C        10.68647867253980   -2.39550776675529    5.83861093875724
H        10.24934693207991   -2.33295276194412    4.83271544245431
C         8.55037033066403    0.68186623714920    5.40778591882727
H         7.91612659634918    0.48406468523484    6.27091796065865
H         9.59146367447813    0.54064194192355    5.70232214055512
H         8.40010877479943    1.70310020989405    5.05946316092361
C         6.48079931276297   -0.03211599121372    3.57323693710558
C         5.49707347963448   -0.17809213440105    4.55197113769473
H         5.78367595772647   -0.49896708762422    5.55049860585852
C         4.17333334272003    0.06853782973954    4.24418113698526
H         3.41277886652366   -0.03311677701182    5.00440728777998
C         3.81936620867737    0.42751703688156    2.95259314663291
H         2.78333342325373    0.60730418850689    2.70788978415589
C         4.78925622651491    0.53265111801397    1.97066986543088
H         4.50889703293803    0.78718670826078    0.95930682227217
C         6.12000107709973    0.30257882506607    2.27455599735945
H         6.87456703653979    0.36543403982631    1.50290515238411
C         9.27939724179861    0.04154399001363    2.75711243033256
C        10.23336690331478   -0.83753514217169    2.25896195355668
H        10.25643488677703   -1.86285902522046    2.61520174847969
C        11.12767236586829   -0.41642753156278    1.29142145839252
H        11.86536277415116   -1.10314358225811    0.90382219393709
C        11.07267256595536    0.88370860244164    0.81808093736018
H        11.76809559981834    1.21284086663596    0.06018130893764
C        10.12345545837811    1.76439422066042    1.31305548049757
H        10.07962488762843    2.77756422843952    0.94059708132873
C         9.23074068125824    1.34927418923004    2.28324787651674
H         8.48760130132251    2.03530604554482    2.66691390657667

