57
CSD_code = YOGWIB | q = 0 | S = 0 | Stoichiometry = C26H29NTi | MND = 8
Ti        3.07334374696744    0.32728372020964    2.00773974865182
N         2.44339748147345   -0.23063625926617    0.36098984271223
C         2.09154342589868   -1.56543649109247    0.33956104047565
C         1.19599220084416   -2.16655912015271   -0.55637344836802
C         0.89942441955630   -3.51565182654218   -0.47493460397579
C         1.47866777545780   -4.31809003527705    0.49063428670819
C         2.36503661405787   -3.75047711467924    1.39507163620518
C         2.67449826642890   -2.40455689447263    1.33296500637398
C         3.57877921644398   -1.75552971570140    2.30825571653301
C         4.89151826259741   -1.24544203872629    2.05684551513203
C         5.73801109176662   -1.35821723036266    0.93871581057431
C         6.97992397875163   -0.76622798397925    0.98213059247212
C         7.41496218983257   -0.06178515075748    2.11239468709099
C         6.61173146842535    0.06186283940101    3.22634153200979
C         5.34139463376943   -0.51620612124869    3.21724901691249
C         4.30570569976434   -0.60543341234531    4.21181761104077
C         4.20397680002536   -0.12833754798852    5.52002857729233
C         3.08229450039849   -0.43439300775323    6.26152399276893
C         2.05109537876516   -1.21844685123970    5.72539842338927
C         2.11219069143492   -1.70234706357361    4.43930752204887
C         3.24062000687940   -1.40136275530656    3.65458638072445
C         2.05529847745833    0.65946606943310   -0.71034250941554
C         3.10117794333613    0.76081194867037   -1.85355463603440
C         3.35395902111007   -0.60808824868393   -2.48739122683722
C         2.56483957085092    1.72454488615436   -2.91502514981808
C         4.41175634701030    1.30225022134541   -1.28045325045054
C         4.07131926038239    2.12957051269667    2.03429138438500
C         1.27352445054145    1.01968552706271    2.72711361645319
H         0.70573385930209   -1.58132825493583   -1.31944518847186
H         0.20032238216960   -3.94179873326903   -1.18029136421177
H         1.24294887678846   -5.36979040188264    0.54449483038892
H         2.82555169611756   -4.35749340469671    2.16302241289964
H         5.42752944515536   -1.94243758629058    0.07979327160489
H         7.64387131648630   -0.85423385117605    0.13390613301452
H         8.40129787519373    0.37812833145446    2.10974337470670
H         6.96379744797423    0.59063177621268    4.10205565741854
H         5.00357537287451    0.46058043036496    5.94982039498889
H         2.99566240152530   -0.07608310553615    7.27679135257686
H         1.19550697927813   -1.44928594510523    6.34418147297620
H         1.32249417599724   -2.32679125919793    4.03617516960844
H         1.08652496524183    0.37067910318617   -1.13983985337117
H         1.93790427303841    1.66578413948911   -0.27382438345353
H         3.69698057423020   -1.31878513985153   -1.73887982865992
H         4.11643041644817   -0.52660783007061   -3.25916071533925
H         2.44941573277864   -1.00003158238154   -2.94583075975363
H         3.28840773260448    1.83994646704334   -3.71843215438018
H         1.63711973160922    1.35173573121292   -3.34388984801204
H         2.37319672258210    2.70447533393088   -2.48316071460362
H         4.27517633946749    2.31898594249878   -0.91516321190923
H         4.74686618838145    0.67119217067967   -0.45195684382193
H         5.18423708918558    1.31394560740725   -2.04631568459311
H         4.13668235143562    2.43519118453665    3.09142310816206
H         5.10008717288672    2.05483189611278    1.65707879463210
H         3.58021491565179    2.95197580296172    1.49493754845990
H         0.88321114319981    1.91813842935170    2.23040054484874
H         1.38219502036533    1.25095580542456    3.79694026942201
H         0.51307488966542    0.23173808579036    2.63033909555909

