23
CSD_code = YOGWUP | q = 0 | S = 0 | Stoichiometry = C8H6N4PdS4 | MND = 4
Pd        7.73362875912395   -0.00007758539458    5.23044612762874
S         9.38734932922309    0.71321150979897    6.66581712963229
S         9.13040695564492    0.46327484413125    3.41993240521671
N        11.77563536569631    1.63202167190459    6.10846863250889
N        11.55590216585539    1.42227323541623    3.39636255488131
C        10.62193081477244    1.15290298737143    5.60195206449970
C        10.54295885636774    1.05609457931207    4.16018580985640
C        12.81806843767469    2.00941329978878    5.31756061805298
C        12.66890451822735    1.88912647628432    3.96113726907429
H        11.84425588249910    1.70411432970273    7.11800250995500
H        13.70325733666426    2.38220520089200    5.80220287707469
H        13.45735616400631    2.17108082304738    3.28042049301114
S         6.08011140668825   -0.71314904317284    3.79496559633879
S         6.33707269855149   -0.46319011715093    7.04106339129056
N         3.69191813083301   -1.63202093987050    4.35241736494391
N         3.91165735779764   -1.42227961333811    7.06452086875365
C         4.84561354228927   -1.15286529435399    4.85892325280553
C         4.92459235980245   -1.05606082049575    6.30070339845528
C         2.64949609037528   -2.00943798631061    5.14332869769602
C         2.79866489480690   -1.88915699779013    6.49974935396755
H         3.62329183614464   -1.70411519198279    3.34288481177339
H         1.76430845392189   -2.38224023000086    4.65868867589183
H         2.01021864303369   -2.17112513778875    7.18046609669127

