45
CSD_code = YOGWAU | q = 0 | S = 0 | Stoichiometry = C14H24P2PdS4 | MND = 4
Pd        3.34760297012026    4.86032541164254    5.30311737349969
S         4.46895783547524    5.10251556382646    7.36476668913800
S         5.05962013981935    7.11655945564133    5.18351826413629
P         1.59606621034969    5.97304644236098    6.22997322614857
C         5.33609613249388    6.48555940948502    6.79011812359264
C         6.27876960961659    7.22220780723519    7.44822534052445
H         6.59404760153808    6.99722588118508    8.45065039472287
C         6.78326284789389    8.28921149696001    6.67342284631670
H         7.53492353467009    8.97079397919591    7.03175607433700
C         6.23008313579127    8.36698962880236    5.43855896449598
H         6.42748611434042    9.06981333995454    4.65470365806275
C         1.01390615514785    5.30515067453499    7.82709292079647
H         0.63399731707377    4.29469231061001    7.67669755237184
H         0.22567589495488    5.94218785136954    8.22793130249780
H         1.85233454182544    5.26492068356021    8.52182829267999
C         1.97226538690361    7.71474868676862    6.63259617997244
H         2.81202171927798    7.74935593627498    7.32723420903258
H         1.10078830376051    8.18813260581467    7.08482733894237
H         2.24749718328252    8.24083681452898    5.71746008078987
C         0.03847008026881    6.12334709228477    5.28611965804607
H        -0.36300381637122    5.13044807222236    5.08319182188637
H         0.24084781749214    6.61473142924293    4.33488056729954
H        -0.68497347683708    6.70241727330464    5.85975567928981
S         2.22661389844105    4.61831082748113    3.24217632171859
S         1.63798295048908    2.60176170559818    5.42164284621981
P         5.09976003440871    3.74713765973776    4.37647887812390
C         1.35765884352990    3.23652174370677    3.81712153011198
C         0.41656998583423    2.49871843283985    3.15803133542466
H         0.10297454615582    2.72258490628737    2.15479899057961
C        -0.08831889938752    1.43175361641332    3.93271656498877
H        -0.83842460605783    0.74893552263283    3.57340683557033
C         0.46412814970692    1.35416625155642    5.16789187760175
H         0.26761951623091    0.65043104227371    5.95114251559186
C         5.68142035016978    4.41444217307616    2.77897897165675
H         6.06091120688321    5.42516412634029    2.92873336383621
H         6.46988023296577    3.77738202568957    2.37867093846873
H         4.84291402913160    4.45379829381872    2.08429096081425
C         4.72343130796412    2.00509396592149    3.97551898568619
H         3.88358034121463    1.97000206025311    3.28102024760441
H         5.59489711647175    1.53152178679136    3.52349163288315
H         4.44836785777184    1.47964179450542    4.89109408704217
C         6.65729810465209    3.59777218660532    5.32060517470937
H         7.05864548523837    4.59087262114167    5.52278678255448
H         6.45519889975692    3.10700545410439    6.27223412162713
H         7.38074740954616    3.01846395641905    4.74724047861123

