23
CSD_code = YOGWAV | q = 0 | S = 0 | Stoichiometry = C8H6N4NiS4 | MND = 4
Ni        3.35405620458904    4.29735605578553    4.68132989045324
S         3.34971215983259    3.87115429607900    6.85951520117404
S         3.35903751052061    2.15022285931539    4.22133137706477
S         3.35594505767033    6.47989228914268    5.08529217703584
S         3.35157357033955    4.65852641039161    2.51531051058965
N         3.34781696483984    1.54869743680734    8.10715701823963
N         3.35741840240886    0.05545539595411    5.80964989872670
N         3.35417333075570    8.49358968727754    3.38372072717528
N         3.34890323590346    6.90545708066211    1.15070512251664
C         3.35100259989897    2.19005333704640    6.92453426688285
C         3.35573837654852    1.37261785849371    5.73680824522833
C         3.35376968438285    7.15802569042186    3.54559043375831
C         3.35130227914374    6.35370152657042    2.34896725887178
C         3.34928564790889    0.18771430031606    8.18267604165276
C         3.35433065931784   -0.52317986341798    7.01129239045919
C         3.35181776273081    9.06390223734238    2.14568631401334
C         3.34900913122019    8.23565802195922    1.05411366968257
H         3.35597658631483   -1.60233861563095    7.01154969846862
H         3.34631536997843   -0.25683307209883    9.16235542383682
H         3.34420538970084    2.11362397117473    8.94943378358176
H         3.34681189964776    8.63241858811597    0.05052024212367
H         3.35235950058603   10.13840144886909    2.09217697433947
H         3.35623867576065    9.06928305942298    4.21868333412540

