69
CSD_code = YOHHIM | q = 0 | S = 0 | Stoichiometry = C22H30CdN4O10S2 | MND = 6
Cd       -0.74627758348937    4.23269978098747   10.19161174494403
S        -0.24449838478563    6.12844750448715   12.62857234277789
N        -0.47615024479073    2.26533617077913   11.42837936917594
H        -0.78377346646888    1.53913030530492   10.77444466830136
N         0.61892594600092    5.17897077981674   11.62494900477635
O        -2.76390746935717    4.02757597073222   11.46553019310325
H        -3.46510110949250    4.05791362413581   10.76494635669378
O         1.39629789656126    0.24951395790138   10.16656946885412
H         0.71948823929522    0.43531591028713    9.49736236061451
O         2.78673293923764    4.81214664368139   11.05569887469362
O        -1.05759846913858    5.36205724457781   13.52282165621630
O        -0.91440216647131    7.12942524003456   11.82674087946991
C        -1.42983618104067    2.33886098329761   12.53552672735622
H        -1.09525601215169    3.11845759175109   13.22698255834175
H        -1.49880950898990    1.37857261002247   13.07024068130029
C        -2.81458080892255    2.73272016559017   12.03185053998774
H        -3.16038922349498    2.00023615437135   11.28676648739190
H        -3.51749149824348    2.73686718699949   12.87714175615096
C         0.85290153437363    1.87282601021771   11.90432190713419
H         0.77069923731747    1.00880510755026   12.58272521768598
H         1.29418920511522    2.70936798836650   12.45251902338728
C         1.77619961990999    1.47307516892669   10.74636572870887
H         1.79295282939001    2.27224147083500    9.99724055463845
H         2.78672342782155    1.33195197502493   11.14163649459610
C         1.93235247138076    5.34412409580754   11.76807293528816
C         2.28013212045581    6.28086857841603   12.87919558594698
C         3.55216503478879    6.62058215013472   13.31114868111505
H         4.41594087549551    6.18070929891191   12.83744324766085
C         3.66951264428992    7.52618635923838   14.35544444179286
H         4.64954838749570    7.80525601333514   14.71230274193081
C         2.54352252272721    8.07965619678501   14.94851943601953
H         2.65758172795611    8.78283726813514   15.75951131564822
C         1.26737631185608    7.74031797738111   14.51116659108828
H         0.38478686085402    8.16385042613093   14.96315162939016
C         1.16311957097527    6.84070756623358   13.47612180820012
N        -1.01641338704340    6.20005947879369    8.95484050208556
H        -0.70878297629219    6.92626786306046    9.60876882462943
C        -0.06273371973341    6.12652377621241    7.84768836896072
H        -0.39731688310991    5.34691953014456    7.15624295062186
H         0.00623145081288    7.08680621201221    7.31296359839140
C         1.32201767964955    5.73267568203076    8.35135363530702
O         1.27135041179952    4.43782492399635    8.91768452584541
N        -2.11148187160841    3.28642487513216    8.75827433152291
S        -1.24806183669696    2.33693497141704    7.75465934898761
O        -0.43495117739548    3.10331251148903    6.86040936123151
O        -0.57816884021433    1.33595683870087    8.55649820456191
C        -2.65568338223283    1.62468553082252    6.90710619143169
C        -3.77269327652106    2.18454121362731    7.50402171837520
C        -3.42490902895912    3.12128124465435    8.61514751618910
O        -4.27928711562136    3.65327316432840    9.32751382565664
C        -5.04472691895011    1.84484304369036    7.07205813373677
H        -5.90850161164118    2.28472569606117    7.54575629166349
C        -5.16207670525523    0.93923304123631    6.02776803519183
H        -6.14211380465702    0.66018038454889    5.67089709794230
C        -4.03608886944469    0.38574786316891    5.43470307820071
H        -4.15015062664650   -0.31742806516142    4.62370645164052
C        -2.75994251095998    0.72507480478004    5.87206212123302
H        -1.87735446204026    0.30153154081089    5.42008492080112
H         1.97254425091090    4.40749699035619    9.61827042925291
H         1.66782625315107    6.46516672580793    9.09643059981114
H         2.02492436361824    5.72852432541973    7.50605859329322
C        -2.34546776492784    6.59257136701695    8.47890747965299
H        -2.26326719676161    7.45658736287113    7.80049780443425
H        -2.78676096706812    5.75602747766636    7.93071865176233
C        -3.26875944914095    6.99232863819033    9.63686659733079
O        -2.88884333691465    8.21588766622496   10.21665695859518
H        -2.21203689559152    8.03008008602648   10.88586604032864
H        -3.28551237550963    6.19316437048384   10.38599428563809
H        -4.27928469546312    7.13345738819222    9.24160051530632

