70
CSD_code = YOHPUG | q = 0 | S = 0 | Stoichiometry = C27H41NTi | MND = 12
Ti        7.15103519840624    3.58161890587215    1.09614426974838
N         7.78521277073803    3.17750803620208    2.88753961588126
C        10.29165407433841    3.99517103205245    0.50587370619476
C         9.18785500623265    3.75077224850038    1.20038718200060
C         9.01266998917699    3.38427264846548    2.62255140734415
C        10.10065260988958    3.28362312370017    3.69963224067062
C        11.14053635745096    2.21494417814109    3.34163528458711
C        10.79988872761113    4.63929025693892    3.85635824642962
C         9.45279571082586    2.90481445455457    5.03520314160076
C         6.70960861917367    5.51757526747480    2.32078987043184
C         7.52924768126521    5.87636929410993    1.21776094007150
C         6.77656902581271    5.63699875014281    0.02872618551806
C         5.49206235814577    5.16916540545080    0.39753631573538
C         5.47524026292085    5.03234420806478    1.81271975006031
C         7.59714485191948    1.31481170367603    0.83536132055501
C         7.68128072791500    1.92263687423935   -0.44773019317827
C         6.37571315856900    2.35482714776333   -0.81139733669395
C         5.49707429861785    2.05494031967511    0.26085068181967
C         6.25908456087426    1.43733279167836    1.28864498824004
C         6.95371502749509    5.81592726056658    3.76924773137633
C         8.76551664560241    6.72604997186814    1.27683794308458
C         7.21656912137984    6.07766978788914   -1.33843007264875
C         4.28177829044476    5.23089669581245   -0.48916097142517
C         4.31413396767272    4.68746509572850    2.69973676708774
C         8.65370233615846    0.47737497088252    1.48575233172278
C         8.82551430600601    1.80228002040817   -1.41134503328591
C         6.01188806384890    2.70469219333314   -2.22644788384980
C         3.99670402620314    1.99863449068595    0.20771357184554
C         5.72527714600903    0.83911080307230    2.55779525084184
H        11.29817308935430    3.96066746063403    0.91667031959278
H        10.26130280691047    4.26197375803984   -0.54548621486544
H         6.25680194078003    6.58818033282896    4.10622937985749
H         6.80242621008808    4.92534113824759    4.38030896368791
H         7.96612707134611    6.17966618282854    3.92651521373365
H         9.37280210367261    6.48912215195988    2.14698442515284
H         9.37741348576584    6.59542174115919    0.38684584654310
H         8.47413378340478    7.77904867347101    1.34099852433087
H         8.14092340402162    5.57786392811734   -1.63874193759063
H         6.44929010498052    5.87597300548421   -2.08287628733458
H         7.40692436371431    7.15364834599305   -1.33831120023240
H         4.01546573547744    6.28220368963436   -0.63449834088049
H         4.45673164825793    4.80137116944562   -1.47194869284372
H         3.42594813742746    4.73696086203905   -0.03796932171719
H         4.56783033834734    3.85240900078219    3.35745931050227
H         4.06414706457469    5.54361675093149    3.33135806703649
H         3.42726930986648    4.43068641020094    2.12404435923868
H         8.54581710179597   -0.56130102979017    1.15999567869255
H         9.65011236483474    0.81800560194578    1.21041698632988
H         8.55404427997445    0.50667898932764    2.56948985194700
H         8.86647979654429    2.65815847835144   -2.08465797220722
H         9.77690793193367    1.72482492719607   -0.88834538227044
H         8.69837313400258    0.90213292323383   -2.02011864669916
H         6.54147876050397    3.58822155697018   -2.58370891426536
H         6.28754159342905    1.87303225204258   -2.88024499804239
H         4.94245681062230    2.86662616819948   -2.33884398588299
H         3.68616866826414    0.95141007122148    0.15405083733987
H         3.53538575940787    2.43089702284482    1.09418270253795
H         3.60498965436819    2.50281946765689   -0.67131054281149
H         5.81739779331881   -0.24925042918016    2.52883289656854
H         6.29084652895623    1.20907881486171    3.41570209710981
H         4.67543562134816    1.08965743418034    2.69640872118411
H        10.69407458082988    1.22450033879103    3.36598869444893
H        11.55899359569355    2.37980594364229    2.35355675209438
H        11.95308877488602    2.23858631974682    4.06713595994100
H        10.08772452879012    5.39799558465077    4.17368025283650
H        11.57817321314183    4.56801818860223    4.61536231346288
H        11.25579962286829    4.95878832208381    2.92365617179082
H        10.21377631284359    2.79948776369891    5.80639081487977
H         8.74271978102534    3.66834579509985    5.34109625296525
H         8.91427827188683    1.96520695584698    4.93911379209412

