68
CSD_code = YOHPEQ | q = 0 | S = 0 | Stoichiometry = C30H28N4O5Pd | MND = 4
Pd       14.97752889270959    1.66549071614773    7.23737331673107
N        14.73652340362461   -3.83730450458618    6.78440611208096
N        13.29015178302388    2.15954072948165    6.32371659712507
N        16.62176249845219    1.18578412800582    8.31298307216218
N        18.68556115441213    7.04608198860789    6.28388153459071
O        12.58466293150863    7.44995378629656    4.86524668574968
O        15.83710309405149   -3.21284380210327   11.60771630132702
O        15.57785477062865    3.69983480531513    7.59112975934294
O        17.74718062438924    7.71257616686231    5.89687427270827
O        19.84175391558819    7.42066363915944    6.26260097036426
C        16.06130282272149   -3.98668179400111    7.33240427304141
H        16.20560441603519   -5.02160276271642    7.63915379259003
H        16.18311209359208   -3.35074204178209    8.21068391997768
H        16.83802507054462   -3.72997015868076    6.60244006167657
C        14.07917741704740   -5.03027132330859    6.31052921891061
H        14.82719039516863   -5.79109172290894    6.09411307698884
H        13.53446908358890   -4.82497780294490    5.38826682693023
H        13.37870308533002   -5.43356588541305    7.05106840275173
C        14.13023314438789   -2.61633928254169    6.71210647148617
C        12.75296994149053   -2.51181120193612    6.43998335618877
H        12.15193987572191   -3.39921102139953    6.32612887242302
C        12.15437172320694   -1.28231401876591    6.32503750063360
H        11.09922005071808   -1.21640697539783    6.09801951480252
C        12.89912607452837   -0.11293044720461    6.50423614793655
C        14.28098132162084   -0.18197690474354    6.84145624775322
C        14.86457048027873   -1.42933770567913    6.91456149128321
H        15.92510650082477   -1.50491136772159    7.10660331430451
C        12.41966611712758    1.20273498144649    6.24401468618661
H        11.40728362063772    1.38616895850092    5.88329462560224
C        13.03002325442760    3.48085283283646    5.97674691797170
C        11.84738890591909    4.13996349373938    6.29581207573424
H        11.07780161661851    3.62494398901528    6.85325742304803
C        11.66542903042194    5.46641833104795    5.94594579720831
H        10.74503316474074    5.95545438780268    6.22401525732390
C        12.66131007709157    6.15172816921632    5.25703158684077
C        13.84598506399714    5.48549353820574    4.92244421219675
H        14.60530025332472    6.03518043091680    4.38895465732886
C        14.03042277448827    4.17274023816150    5.28133358100762
H        14.94396888156211    3.64239732258221    5.02169420300188
C        11.44478672297868    8.19669693130653    5.21194468906033
H        11.61997013956857    9.19842782436361    4.82315401163138
H        11.31323612931557    8.24906583211167    6.29762620928348
H        10.53847545732047    7.78539226493218    4.75460222576276
C        16.84097387441675   -4.16181758718793   11.87469359669655
H        16.39164796951671   -4.88124296874051   12.55712899070299
H        17.71069176581155   -3.70304964229984   12.35537445247597
H        17.15923931064936   -4.67904208903622   10.96350391560421
C        16.12904328890754   -2.16395955777674   10.79309753680345
C        15.09652650451888   -1.24029981526479   10.59470454388409
H        14.15828684990196   -1.40906180789682   11.09785298781693
C        15.27986242418065   -0.15391429820040    9.77414109590290
H        14.47906134967720    0.57479495394254    9.61944720398757
C        16.50822558087129    0.05392406982858    9.13124312321839
C        17.53522103276690   -0.86062585867445    9.33734571702550
H        18.47945887405672   -0.74232621876467    8.82568975729026
C        17.34755202511057   -1.96510896789252   10.15302694355280
H        18.16090492440886   -2.66303577714981   10.27541455270347
C        17.71188148007532    1.88422368782316    8.33833161727194
H        18.55536986869258    1.50672258182213    8.92531329814608
C        17.91101546016749    3.16815931694720    7.75163743416794
C        16.79173145602245    4.02205613013590    7.43081637513180
C        17.11314135979991    5.32991448308005    6.96120943847726
H        16.29895785218038    5.99385607166240    6.71283753800253
C        18.41505162744363    5.73034997192422    6.79809952418505
C        19.49587990931460    4.89673935932935    7.12393026628463
H        20.50284753947896    5.25533136494967    6.98964016232773
C        19.22531261090444    3.64589995735815    7.60841092896076
H        20.04144728549143    2.98691787858799    7.87021572825675

