60
CSD_code = YOHQAO | q = 1 | S = 0 | Stoichiometry = C22H34N2OV(1+) | MND = 8
V         7.96688537456389    3.97297771355167    5.08807609682700
O         7.54987667551059    3.15542466500376    3.12860945405698
N         7.34199557436475    2.78572703673976    5.96878145346224
N         6.62437939274856    5.09622994100216    5.17489617197563
C         9.54448087017834    4.61597154945872    6.39941562085090
C         9.63150901384371    5.58077244394054    5.35137499224358
C         9.97640218905418    4.91797537358724    4.19092060308105
C        10.18685789784487    3.54515051993328    4.50710769803721
C        10.00632252449922    3.37664199006535    5.87129190520056
C         7.13100473742770    1.77648983830624    6.80734143740941
C         6.36402655753313    0.64700309021396    6.45606739434016
C         6.20531821401354   -0.39583679340215    7.34188925828551
C         6.78689502852651   -0.36932281913656    8.60701879172888
C         7.53584300149960    0.75290701837697    8.96493054082354
C         7.70718040906272    1.80598818020191    8.09855697279847
C         6.60283370925735   -1.49285874595234    9.57028215299963
C         5.44718532658483    5.14197464190590    6.01852814010963
C         4.50011679993845    3.97308016355680    5.71895075425310
C         5.85724793104883    5.14082193803034    7.49564227155304
C         6.71427352421654    6.17545351419373    4.21782369650783
C         6.70828958193026    7.57435445598640    4.85411368058515
C         5.59946075961685    6.06031521475430    3.16487442197340
C         8.05178697041577    3.56000559372796    1.85396727947362
C         7.16903240503792    2.84462670431038    0.83872026527693
C         6.98884369905397    1.48713671114627    1.51446737846614
C         6.93895053769435    1.86158309133890    2.99937172550533
H         9.48471675115213    4.86093626443172    7.45321536761312
H         9.50700284398493    6.64689459582177    5.47387565215645
H        10.16737076686390    5.37174317707742    3.22758732048803
H        10.57030223533433    2.79632230852458    3.82578057701826
H        10.18936440457132    2.47335472984064    6.43799928949131
H         5.89739731511434    0.61159931812816    5.48207250098899
H         5.61527147979737   -1.25097945580476    7.04775037624283
H         7.98740408011990    0.79408002892436    9.94510943047370
H         8.28193121940610    2.67533067144382    8.38798492664379
H         7.55182821696618   -1.76669333884396   10.02672081645743
H         6.17864605616190   -2.36539394616820    9.08184420987396
H         5.93054355148603   -1.18773580215076   10.37215953367123
H         4.89516605398372    6.06993129384096    5.83060876115972
H         4.17007225794192    4.00482419984258    4.68308963810276
H         3.62762085299001    4.04433346386794    6.36248060257603
H         4.99885821885025    3.02602590057246    5.90627987274600
H         6.33336058124059    4.19740827596070    7.75265425874258
H         4.97680463982341    5.27581416114953    8.11811925832494
H         6.54966493696241    5.95753235477467    7.69318379121010
H         7.66933261338653    6.05457331525550    3.68756557616982
H         5.70861285832759    7.87748717782193    5.15436903469632
H         7.07188833093362    8.30181545830595    4.13261185736301
H         7.35277203948291    7.60003975716232    5.73092656644070
H         5.56261947506178    5.04672004145144    2.76660482095053
H         5.79233804199835    6.75562958538919    2.35125156758254
H         4.62938529350150    6.30173370066967    3.59210661978641
H         7.99256459831065    4.64858581077506    1.78046505964584
H         9.09735507934163    3.23921681419616    1.74068868039429
H         7.63573892978469    2.77449649402271   -0.13977410808907
H         6.21076290775145    3.35627433127911    0.73906536110179
H         6.08725774211881    0.97274680901629    1.19336676275179
H         7.84601961145943    0.84623560288474    1.30794199304568
H         5.90742432219650    1.95688230183112    3.36227842405603
H         7.48150298868955    1.14444156891259    3.62669544225947

