55
CSD_code = YOHROD | q = 0 | S = 0 | Stoichiometry = C28H18N4NiO4 | MND = 6
Ni        7.78749581435257   10.44666891758474   10.86457491532562
O         9.41782893973212   11.45325713442407    9.94482453043450
O        10.94104065498210   12.97538665230921   10.53625839188208
O         8.28440234720038    8.63381628820103   11.85529228915690
O         8.44676941527237    6.47163239302655   11.32108802703769
N         8.27296904379400   11.48253490945265   12.24366085440901
N         5.94010122402832   10.22738220306994   12.22254068752899
N         7.54451356639859    9.31909952739151    9.49375394193041
N         6.63199623223181   11.80422599020830    9.40724832083075
C         9.40521423026996   12.16064423889282   12.17784597656362
C         9.96470684692728   12.77235282176546   13.30633001085315
H        10.88748146833050   13.31659359879208   13.17580701101932
C         9.34744683693381   12.63921503595886   14.52597057482148
H         9.77678040959776   13.06787310941710   15.41997017748930
C         8.13628546635495   11.92636154212344   14.60961479566521
C         7.62517913331955   11.37885508004647   13.41665808677106
C         6.39083412942854   10.66086492705879   13.41637275488234
C         5.71884263215796   10.43709831759428   14.63260185517973
C         4.54180338806778    9.67026361638295   14.57061721726392
H         3.99093730132958    9.45676530865321   15.47525846762524
C         4.11659156567705    9.20066077885244   13.35470550395869
H         3.22370586632237    8.59921058841329   13.27796298577904
C         4.83840947734492    9.50681358884237   12.18459148783303
C         7.41128520030613   11.70835015271805   15.81684161345306
H         7.81058986124297   12.12258133846477   16.73083550262292
C         6.26332547186587   10.98449854644824   15.82939751548801
H         5.73661600354997   10.80622653822528   16.75554181862492
C        10.01399726082394   12.21850979605515   10.75522398203713
C         4.37769406174650    9.01422375210795   10.85364240003124
H         4.73467302747166    7.99433458354542   10.70792699192246
H         4.79806671384153    9.63976849135506   10.06910913659514
H         3.29220232348274    9.00954760386698   10.78828056543877
C         7.93667694275621    8.06260450277628    9.61044180321865
C         8.01487258425331    7.20910457207001    8.50317052309106
H         8.33555061837607    6.19305664837160    8.67508229894212
C         7.71360390914761    7.69097522671109    7.25282072034895
H         7.80266539118586    7.06590249945435    6.37609068180959
C         7.28647258705358    9.02532227649967    7.11454210585106
C         7.19788143803237    9.80003540912475    8.28759886380582
C         6.75106823860901   11.15515932745210    8.23218800880005
C         6.46742038039811   11.74110754579186    6.98435886855213
C         6.09081208359516   13.09583959541845    6.99520921922326
H         5.87280023499294   13.60077487783694    6.06517957782855
C         6.01319800769008   13.75554465847852    8.19464140401889
H         5.73893199487247   14.79871151014323    8.23295108834837
C         6.28303618223267   13.07410618187287    9.39742145799302
C         6.95984270454506    9.64251437351284    5.87236501394524
H         7.03692757913562    9.04789369889707    4.97408998290992
C         6.58199237136364   10.94451049469041    5.80928556845877
H         6.35993195782122   11.40638727583489    4.85833977671938
C         8.27019216269106    7.64772609088182   11.06457715271870
C         6.18776712835612   13.77675991094950   10.71025283225807
H         7.12220802329893   14.30549850683914   10.90004366777503
H         6.04007265744445   13.04685744971150   11.50333146104541
H         5.37758890776367   14.50208999542642   10.71236953187305

