70
CSD_code = YOHRAO | q = 0 | S = 0 | Stoichiometry = C27H41PTi | MND = 12
Ti        7.15956858010712    3.60986470735000    1.07859800321884
P         7.24730748803290    3.20258146910367    3.48925670387397
C        10.23203867529467    3.42333980365761    1.00833723176858
C         9.10047616623263    3.41308683527756    1.71660778864355
C         8.91459976866642    3.21450027060587    3.13992840075555
C         9.99557623543261    3.06613518243689    4.20260508232109
C        10.84019333323399    1.80926694304260    3.95464333256957
C        10.89823426956068    4.30714243374520    4.20882349489939
C         9.35059180199374    2.93759324759125    5.58445034008392
C         6.96512645837907    5.71520563244547    2.08632405578035
C         7.95915069889134    5.76896486000127    1.06830980386718
C         7.31241467516705    5.53541912556236   -0.18094585839889
C         5.92264032898280    5.37398284075835    0.06300454395849
C         5.72105823775793    5.42379115094436    1.46460787051382
C         7.56680862199258    1.36060186435796    0.75264755011645
C         7.52808540685269    1.95683052847292   -0.53634542059948
C         6.20776147129905    2.41927736177816   -0.77314404399695
C         5.43867762466680    2.16659640438429    0.39005192309219
C         6.26814368475639    1.49427225175619    1.32924787612969
C         7.12638892732835    6.25179821322892    3.47690425842200
C         9.31120867381695    6.39804163915706    1.23298010940294
C         7.98029542959736    5.73434229318716   -1.51016709061161
C         4.82467714732793    5.55728874442158   -0.94306880662237
C         4.40698981862215    5.41379779342236    2.18828753824420
C         8.63568720962404    0.45946899414937    1.29055987177343
C         8.58145399879063    1.85371256201633   -1.59847284517372
C         5.69361429885315    2.70915113635623   -2.15173953521431
C         3.94788164879457    2.24855081233823    0.54070188854838
C         5.74490916911397    0.72410610404888    2.50651301214468
H        11.22079816839334    3.27190234238653    1.42968018167725
H        10.23185120380858    3.59720523672252   -0.06176358374671
H         7.01157167013640    7.33958865733411    3.45582289562390
H         8.11307498538491    6.02333109631732    3.87798450078267
H         6.37591673792225    5.84265151096838    4.15273181655556
H         9.20669152183488    7.48576340232128    1.17208324042077
H        10.00142930773478    6.08049927792195    0.45456833803880
H         9.74584390356521    6.15402643471867    2.19965522055846
H         8.14816589132960    6.80085314976582   -1.68469755617884
H         7.37221866674606    5.35720823947526   -2.33054109506703
H         8.95163953927558    5.23788397920301   -1.54110525326947
H         5.18051581464355    5.43133728795957   -1.96144259470070
H         4.44551131478196    6.57947192783466   -0.85164197213532
H         3.98454270330727    4.88626489504646   -0.77760989454579
H         4.43776713455484    4.72306145796317    3.03583671875826
H         3.59235806869190    5.12594546326570    1.52730626528338
H         4.18822890370567    6.41078108186073    2.57900279100636
H         8.38429552698940   -0.57969294912305    1.06150989747106
H         8.71624963403412    0.55941929316485    2.37243404461007
H         9.60658561058650    0.68355193425321    0.85409352741034
H         8.31349238985586    1.06020657522926   -2.30208579839862
H         9.55105996266798    1.60776055511002   -1.17090383385958
H         8.67173228999230    2.78025182927749   -2.16658029958526
H         5.73233813933665    1.78370836356006   -2.73425786239859
H         6.30349425309682    3.44234769434640   -2.67754875433827
H         4.66166120144981    3.04777777527495   -2.14183688991500
H         3.52041236000129    1.24454108735054    0.46653271288040
H         3.49094367205980    2.85822039889329   -0.23580856566178
H         3.66947612461402    2.65305366434453    1.51456638783337
H         5.27403993771581   -0.19835678244390    2.15386636018722
H         4.99828330246911    1.29552569670569    3.05911784327019
H         6.54631823760647    0.45422444837907    3.19343633534003
H        11.26762561141037    1.80459179484928    2.95736283747892
H        10.22690200267956    0.91762950168628    4.06741984701026
H        11.65173504127723    1.75718848851282    4.67907624699042
H        10.31296661400570    5.19369068691139    4.44776006999795
H        11.37272090329219    4.45800873850318    3.24406517596374
H        11.67582466653436    4.20074318077328    4.96383489362538
H        10.11475285157836    2.82521305298145    6.35145247887799
H         8.69305229125392    2.07049068324570    5.61541077339526
H         8.75425199047651    3.82001764169468    5.80950547327313

