43
CSD_code = YOHRAR | q = -1 | S = 0 | Stoichiometry = C20H14N4O4V(1-) | MND = 5
C         0.08439085933309    4.13918552732680   19.33482083873254
C         0.17404115474419    4.88864186573841   20.60860641187308
C        -0.99650981686119    5.17513615306117   21.30667341264347
H        -1.93659370580933    4.84168226004305   20.89079604504236
C        -0.93943475887169    5.87177460745159   22.49901400308464
H        -1.84931021830348    6.09401229522505   23.03889709776766
C         0.28268579588394    6.28673129634793   23.00384764353113
H         0.32632130690686    6.83195092425949   23.93685279670977
C         1.44997336637818    6.00397448517371   22.31140916893619
H         2.40229216197632    6.32983332472649   22.70687314551406
C         1.39969633993162    5.30878651337931   21.11782149075554
H         2.29634002888292    5.08059419079316   20.56349579701032
C         1.89074424029087    3.14213292866916   16.67838479448779
H         2.85998488146503    3.59274213451365   16.91527731083854
C         1.74829478259691    2.46824261605211   15.42417846090200
C         2.81108294456911    2.39157402498340   14.53831994066065
H         3.76049629818690    2.84231272965627   14.79314626220173
C         2.69691500152398    1.73798265696861   13.30745420814460
C         4.82365798194342    1.19286113498309   10.56907933374631
C         5.61292925481902    2.34902994564129   10.48371701272645
H         5.41220858859935    3.15623593592038   11.17266953397552
C         6.60473174395954    2.44558327557090    9.53149339279153
H         7.20646789293660    3.34270141330529    9.47032116777976
C         6.83800439489098    1.39841490990510    8.65242580627261
H         7.61777836910972    1.47769945813050    7.90788014137077
C         6.06167051081127    0.25059400033182    8.72806221848814
H         6.24241380555304   -0.56605289666902    8.04206828010597
C         5.05737837578612    0.14776736766271    9.66655897579429
H         4.44793953668648   -0.74102189994942    9.73537392029878
C         1.45408258831357    1.14515870476084   12.96928109726882
H         1.37741268234343    0.64774780332081   12.01294476285666
C         0.39729333483456    1.20486782121335   13.82466461003446
H        -0.55585438010720    0.75850461303308   13.57639226411941
C         0.48648760365806    1.86410136646690   15.08817523032834
N         1.19999765623484    3.92395266210531   18.67386730233989
N         0.93268167265347    3.25595061966508   17.52921800754369
N         3.80385831087875    1.73505328087254   12.51586084254939
N         3.75057400570013    1.07785932645542   11.41768413205243
O        -1.04532622358624    3.73056233033077   18.93481776495578
O        -0.51041937375830    1.86697815947653   15.87339051999882
O        -1.65777797828755    4.17851046326693   16.41772369145999
O        -2.29954023791653    2.01551701966582   17.65752951864280
V        -1.16516077887958    2.95473265016471   17.21443164366540

