21
CSD_code = YOHSUJ | q = 0 | S = 0 | Stoichiometry = C7H6BrHgNO5 | MND = 5
Hg        0.40347353691918    0.13720550537663    4.34481012731801
Br        1.38296007378574   -0.65940053913831    6.32407063919958
N        -0.81139540973968    0.33435837365465    2.37827108516226
O         0.12679867316822    2.20644062045960    4.06686483957658
O        -0.50722602665168    3.82994515988217    2.68022163605343
O        -1.41703714467478   -2.98068770549002    1.30605664134695
H        -1.19605919133652   -3.85161582481928    1.67832099422378
O        -0.38115039428026   -2.21413970412068    3.12278907495765
O         2.74324778265259    0.98857007297622    3.46224781937803
H         2.61691206117479    1.94439020515058    3.42625926558149
H         3.44189718401495    0.83317753870862    4.10910103342335
C        -1.26906051270314   -0.63817245818772    1.58894226456789
C        -1.95655791049320   -0.36757027409215    0.41465097480014
H        -2.31344675713486   -1.17832596097430   -0.19956205182106
C        -2.16341432149532    0.96320751937063    0.06555860602035
H        -2.69455379484585    1.20794936164644   -0.84202462551704
C        -1.67967303676109    1.96179549973322    0.89078859077769
H        -1.80188506122021    3.01190793848345    0.67480078594557
C        -1.00094146139312    1.60086011049572    2.05416988178473
C        -0.41501331580375    2.66949960130609    3.01539069811677
C        -0.97457497319060   -2.00959504043018    2.08747171909199

