90
CSD_code = YOHZOL | q = 0 | S = 0 | Stoichiometry = C36H48N2O3Zn | MND = 5
N         1.21350559813083    5.77824433857635   20.14008541517791
O         0.96281121185114    5.47160074070709   22.86613676456209
C        -0.80138608893127    9.10001860608770   22.92482140481062
O         2.73611294706000    7.65538485316649   22.30053035133133
H         2.95969385883192    6.96449320414091   22.93533105817983
H         2.48853599023238    8.42515710256870   22.82556323790529
Zn        0.71632219020142    6.92412501530842   21.69809612338480
O         0.04654690228158    8.13687478623807   22.99690135851010
N         0.00844706772470    8.11392668192124   20.26206009002852
C        -1.29433850283647    9.73449838744764   24.11496182925053
C        -2.18158735732821   10.77213325818280   23.99546050465652
H        -2.54363594059398   11.24797263326047   24.89071773959389
C        -2.66323916616031   11.26453656508970   22.76575319413906
C        -2.21015671266597   10.65747034978041   21.62921088896463
H        -2.53965711564239   10.98000031636617   20.65365459516027
C        -1.28193029840197    9.59258569127934   21.67118177687898
C        -0.86246903767552    9.06293750797404   20.43163470758065
H        -1.33344869182967    9.51175962350507   19.55223609399804
C        -0.83179097222378    9.23186405520012   25.47823547182793
C         0.69633948863872    9.34089540641280   25.57498148216421
H         1.03129880200460    9.03841045418923   26.56501426131755
H         1.01649378590969   10.36599530886822   25.39638462774266
H         1.15891570215085    8.69119829985287   24.84003538043105
C        -1.25431517350637    7.76534287721790   25.63180110548948
H        -0.91810016438907    7.37653650666830   26.59057974633826
H        -0.81901041988314    7.16459918011997   24.84073011181257
H        -2.33785055916972    7.67785318866491   25.58109666852040
C        -1.43218976766884   10.02445190582196   26.64432885891081
H        -2.51741408758295    9.95205962026893   26.65505154072006
H        -1.14080582437395   11.07202595910708   26.60360317707670
H        -1.06331254177737    9.61146565322675   27.58128522720215
C        -3.64477237218194   12.42601487037843   22.77142780758080
C        -4.06386015019621   12.84252354282111   21.35892712849347
H        -4.55908873314358   12.02412808893822   20.84168760792403
H        -3.20408643450921   13.16500416932525   20.77620289444236
H        -4.76216514356398   13.67516172681628   21.41715993678823
C        -2.98854275621886   13.63652581976747   23.45039236616148
H        -3.66818753181853   14.48626639334637   23.44164136028034
H        -2.07930715028124   13.91560320078089   22.92189132838227
H        -2.72890355176786   13.42067548160730   24.48296164951139
C        -4.90715711724136   12.01756344499133   23.54326033758315
H        -5.62962923051527   12.83128022774357   23.53926101291015
H        -4.67890929730993   11.77159305870555   24.57650748939507
H        -5.36462607297743   11.14635492167375   23.07917045310313
C         0.46612639920372    7.72854070332934   19.01696714684570
C         0.39184623715353    8.51857861806640   17.86953624151368
H        -0.06309362620427    9.49634206194636   17.91617501014490
C         0.92700684172549    8.08155167301792   16.67451055097642
H         0.85924087919895    8.70583422577683   15.79625611329961
C         1.57075772069235    6.85570477569367   16.60861192396475
H         2.00521319984172    6.52149853434502   15.67845001591603
C         1.67947023672769    6.06876643085422   17.73768076089496
H         2.22250229347149    5.13811604291036   17.67601681778096
C         1.12493400504745    6.47736900157358   18.95059794352639
C         1.55470345479275    4.52839035886907   20.20435896908894
H         1.73192911075307    3.97596944874450   19.27743665982125
C         1.71949829225947    3.77054034174915   21.38642804807904
C         2.19579290238927    2.45217860082343   21.23707849706852
H         2.39905010749237    2.11179429987529   20.23138894627128
C         2.41557876558691    1.62844289182552   22.30883143192942
C         2.11939019482257    2.14208807202268   23.58292255000028
H         2.28370956365098    1.50295398032816   24.43083445565434
C         1.62759688621335    3.40567526122902   23.80348867843745
C         1.41481736378668    4.27985699733087   22.68754379713214
C         2.94995640483195    0.21883305648217   22.09462987285520
C         1.95688941152435   -0.56452318963161   21.22455271890760
H         0.98484800482116   -0.60774467545776   21.71126335151400
H         2.31177280657810   -1.58143638256386   21.06932578658447
H         1.82921101189143   -0.09610070868893   20.25269415118549
C         3.14435819232414   -0.55103304445693   23.40378614224857
H         3.85871120969136   -0.04868433212787   24.05199408938217
H         3.53204712063115   -1.54414137051114   23.18455045880658
H         2.20173678590880   -0.66996138503210   23.93287553254084
C         4.30909390236386    0.29924760937084   21.38508037550763
H         4.22072631901738    0.78060596291527   20.41523147292022
H         4.71487152322923   -0.69907464128112   21.23401266493430
H         5.01306857885840    0.87127912939536   21.98589688302102
C         1.27243333193619    3.88591275755548   25.20713025863272
C         2.00974063745949    5.19491569714904   25.52496128269462
H         1.65669304546893    5.98917565813332   24.87650872269089
H         3.08296015030441    5.06684992017148   25.39043277494768
H         1.82271940011753    5.48516250041266   26.55667394868361
C         1.63720787151075    2.87192113963331   26.29721333717544
H         1.36805289538174    3.28292744114516   27.26833707125718
H         2.70572421573727    2.66670842692599   26.30432987353549
H         1.09261393537283    1.93895708949377   26.17204471588892
C        -0.24342287270473    4.11861629618646   25.25961476129715
H        -0.53408824644247    4.49857610579404   26.23646862929721
H        -0.77326469471319    3.18571678685565   25.07636721803562
H        -0.53858135041209    4.83928880772846   24.50405318088849

