55
CSD_code = YOJBEH | q = 0 | S = 0 | Stoichiometry = C28H23N2PRu | MND = 8
Ru        4.16902885283101    7.04298478950374    1.13133102975072
P         5.44677765792867    8.13561351291450    2.63494205964111
N         4.34932801674306    4.27362086800815    1.82718319491034
N         2.71687292267564    7.17694157734007    2.31718514393533
C         4.06581354994850    5.90070016327671   -0.84686774652237
H         4.11418125212248    4.82939522057409   -0.97531201907188
C         5.17114283896537    6.79164838523306   -0.86496414022028
H         6.17747464105837    6.52558694892284   -1.16771229029720
C         4.64721167224092    8.12395386757756   -0.82793910909159
H         5.22633431250169    9.02805680887816   -0.97088787946190
C         3.25076624841553    8.04766678052945   -0.72103498700209
H         2.55974194097661    8.87790696556514   -0.78188981298148
C         2.89174129293646    6.66364237146435   -0.70502477693856
H         1.88062029957206    6.27982687622862   -0.75874743815551
C         4.75208928002640    5.45015184869191    2.22709638632135
C         4.69078235562021    3.17309543052751    2.51917739627831
H         4.31923472562106    2.24034071614624    2.10983496497012
C         5.44005069975845    3.18808236869745    3.66438596319155
H         5.67514519464101    2.27599957845653    4.19274235514187
C         6.70930231098210    4.60721103868536    5.29620750238756
H         6.98884473589842    3.73944320485697    5.87751171016606
C         7.13399191151613    5.85736491526553    5.66844391406261
H         7.74865836461018    5.97505494987052    6.54998637450338
C         6.79507667274024    6.99501435087414    4.92240438299238
H         7.15077472864377    7.96899743487400    5.22908759834406
C         6.00894540078058    6.85219272203732    3.80362721247839
C         5.56105731662855    5.57822554307057    3.40230564030395
C         5.91220943971296    4.43033898338790    4.14683606822115
C         7.02079301930272    8.98964677152243    2.29691625068239
C         7.78174092793304    8.49306434164946    1.24372923944435
H         7.37915364091760    7.67535940395969    0.65770151214249
C         9.02266046462917    9.03258147071498    0.96265166410638
H         9.60976858928943    8.64575223542050    0.14226944238985
C         9.51342880723138   10.07111809858291    1.73815636875375
H        10.48128591513850   10.49818055535872    1.51974959841977
C         8.76489334379655   10.56006032745017    2.79660557456048
H         9.15244358618256   11.36525504400472    3.40431374408350
C         7.52260650448457   10.02179963444896    3.08222331170530
H         6.94112751072393   10.40573844813444    3.90869555079477
C         4.54919817833977    9.31620581283774    3.69028239570214
C         4.34299481680869   10.61611772935789    3.23337162958044
H         4.82890283917468   10.93753656193951    2.32106172474522
C         3.53109205885728   11.48218838083961    3.94018143637865
H         3.38235336592709   12.49302912720247    3.58838960669085
C         2.90011565826303   11.05214186199042    5.09768853954203
H         2.26367819017472   11.72930782630464    5.64880748242931
C         3.07987278803212    9.75232786155177    5.54236047918106
H         2.58105946630273    9.41576631531465    6.44047793607321
C         3.89504353349049    8.88300757050962    4.83986771801544
H         4.03442729308002    7.86388348795085    5.17613167903435
C         0.59867585129613    7.44025903196661    3.79538466959807
H         0.51963925092597    8.47468242590701    4.13278247669737
H         0.69228188064041    6.78783630216835    4.66390829626408
H        -0.30404609782910    7.17192738973335    3.24703002670697
C         1.75370998080510    7.28866776172177    2.95065294842475

