60
CSD_code = YOJCOP | q = 0 | S = 0 | Stoichiometry = C21H30FeN3O4P | MND = 8
Fe        1.58431374274596    2.42865548043001    3.37858032983781
P         4.24572981678440    0.69406984919698    4.29322453116504
O         1.27581550401952    2.31103904395337    6.24958103559650
O         2.27445985295751    5.21097079234114    3.77735676283960
O         7.28601284658240    2.31062641965678    1.02396572735691
O         5.28936792337856    3.00124404383777    0.22681845154032
N         3.43451066064920    1.84989860361892    3.40143140951200
N         4.05552650811388    2.31692410874366    2.36203823375385
N         6.76117701140537    0.09772839708344    3.33027134720951
C         0.44719835157801    0.63313486465854    2.72975308216343
C        -0.45772015006392    1.73036633697489    2.89585612557440
C        -0.08529816345779    2.74554976982491    1.96646264992983
C         1.02620224452435    2.25815112946441    1.19889312477090
C         1.31044310917016    0.94009819491439    1.63518095843024
C         0.35024690549781   -0.70972173446613    3.38307944896328
C        -1.67930744690187    1.73557287950228    3.76017572185935
C        -0.86342189227559    3.99235446987978    1.68085699185310
C         1.68169697729388    2.92743470176068    0.03428647222616
C         2.30850080792182    0.00924481545093    1.03557842121661
C         1.40630227784550    2.32332254467778    5.11305372023865
C         2.01153058417325    4.11577187387778    3.58235698669088
C         5.27566452796472    1.79829079228058    2.19280721937817
C         5.61269397935626    0.83124484842143    3.18143206334382
C         6.77141693602170   -0.78734930668075    4.46590461176778
C         7.47922291511656   -0.38528769480358    2.17409577414469
C         6.07561725058204    2.36971900667268    1.10886226645167
C         5.86591370178178    3.78056789079704   -0.84653343919311
C         6.66431232875121    2.88228680603567   -1.79316145189276
C         4.66012224758326    4.37636964069486   -1.57582555537624
C         6.74100703735454    4.89869859455196   -0.27939773914713
H         1.34351186892961   -1.10248436422548    3.59272151537600
H        -0.16355083190812   -1.41363607861635    2.72603965745090
H        -0.19736580585358   -0.65029653770885    4.31959935094290
H        -1.52880518888194    1.13630689839260    4.65427208200615
H        -2.52329491465221    1.31823612054524    3.20796047135888
H        -1.93917633766776    2.74578877440248    4.06583812267818
H        -1.62844546815170    3.78405020556635    0.93051352177772
H        -0.21744421028772    4.77877472915217    1.29969572304936
H        -1.35717929898330    4.35995972686156    2.57683403308280
H         1.36778217343289    3.96399484143805   -0.04690493316965
H         1.42393217518083    2.41397135398335   -0.89299341768869
H         2.76265280192386    2.90313431703304    0.16085701881275
H         3.03454416880302    0.55625682183789    0.44015673936703
H         1.80133130109583   -0.71607634558883    0.39643460327610
H         2.83997688287307   -0.54089154843534    1.81235567599592
H         7.76488173668329   -1.21733549193318    4.58345034074976
H         6.03758912129168   -1.60150822459324    4.36546409356050
H         6.52217937365137   -0.22082877949385    5.36600139195901
H         8.41635646396591   -0.83031694832499    2.50533301600024
H         7.70886943653020    0.44506407133087    1.51133649393119
H         6.90598197365971   -1.14217457639501    1.62182565530686
H         7.53162479497486    2.47299348350174   -1.28308110766028
H         6.99858553927996    3.46084204952833   -2.65006693639514
H         6.04158977328548    2.06094843978669   -2.14263320685831
H         4.99773217609356    5.01229688069201   -2.38917648467903
H         4.06580692593691    4.96759520266098   -0.88476084066914
H         4.03638881894585    3.58458591656016   -1.98200049301286
H         7.08195423552379    5.54260009467997   -1.08565041409773
H         7.60573366534949    4.48188669901393    0.22911350204636
H         6.16829825253299    5.49058510501377    0.43147954328536

