62
CSD_code = YOJDEG | q = 0 | S = 0 | Stoichiometry = C17H36MoO3P2S3 | MND = 7
Mo        3.38192829564694    1.94600847383782    3.36359506355116
S         3.28694165363402    0.84146507150285    5.64895890810499
S         1.90931636359395   -0.13313122573637    3.31305288365581
S         3.62634683762197    1.89888619417679    0.79357115923130
P         1.68852540014711    3.32236681184431    4.32676264620775
P         5.37792933838969    0.61762233836563    3.38892933723071
O         5.19200318454597    4.39584433366201    3.73812691574613
O         1.89946198266883   -1.29343541100387    5.74016975988064
O         1.31796967179659    3.14875645496586    1.34957073404632
C         4.52055788148151    3.46960627820632    3.59536123225457
C         2.28352578408503   -0.32766670047486    4.92825655222009
C         1.04306790725982   -2.39976859287706    5.36553078689483
C         2.41967340651447    2.58508502524720    1.70294698108273
C         0.87853589174600    3.34511367199202   -0.03536735935618
C        -0.06445224386055    2.81960842920502    4.22268766169343
C         1.65226785710007    5.04482647347545    3.73668189899415
C         1.84290651681873    3.64155259618838    6.11457105186056
C         6.52661266471093    1.08803889140639    4.72051792504870
C         5.30784827818151   -1.20078354771673    3.58994903335365
C         6.46966688655572    0.75583262949591    1.93992621318872
C        -0.32936953391673   -1.89207945773265    4.92505003769066
C         1.70247722041913   -3.25063001767530    4.28085777597400
C         0.91929620203555   -3.20032887499172    6.66311243479196
C         1.87279004263790    4.24350528728069   -0.76366551046988
C        -0.47703113452318    4.03621254179062    0.10827493465027
C         0.72208954254473    1.99323828774254   -0.72483240055696
H        -0.34536312150589    2.71090419466662    3.17688301368185
H        -0.70274342324662    3.55863987324052    4.70899367020066
H        -0.17338996870466    1.85472996786902    4.72186354484905
H         0.86092861622761    5.59518500114329    4.24774342093346
H         1.49280206271047    5.08141780621748    2.66330007549739
H         2.61993439506891    5.48900334115275    3.96816230994747
H         1.63117743680865    2.73315838575971    6.67780234261978
H         1.15287876027403    4.43221507437382    6.41252553116936
H         2.87109915922167    3.94571186124579    6.31468641836081
H         7.42397294721331    0.46878532506637    4.67914437951424
H         6.03853286336714    0.97357497355749    5.68827971103157
H         6.79225760297691    2.13558290102863    4.58040228791731
H         4.84293455000002   -1.44672785600024    4.54623691310814
H         6.31525208921043   -1.61835075420535    3.55720441036489
H         4.70944861544929   -1.62233183798647    2.77983604318127
H         7.41991771418854    0.25490211436926    2.13278597611915
H         6.63613492975880    1.81453789980062    1.73839422515789
H         5.98062881942920    0.30884017824449    1.07427309111116
H        -0.25925318875525   -1.34426484769453    3.98921297964656
H        -0.74474330198835   -1.23645924892484    5.68796779613750
H        -0.99889585081956   -2.73571307096953    4.78424036365168
H         2.70004077568624   -3.54937951127898    4.59676299861317
H         1.77856188963663   -2.70036772365220    3.34700696059079
H         1.10648921638763   -4.14250784361920    4.10995333563913
H         0.48551809165059   -2.57963558016024    7.44261499104638
H         1.90164120773508   -3.52809632799188    6.99280719038119
H         0.28772657662792   -4.06949963953439    6.50620582368097
H         2.85543704852080    3.77800704012751   -0.79444697082002
H         1.95706528176624    5.20302116781059   -0.25684303337475
H         1.53561598131646    4.41077951036011   -1.78256082227544
H        -0.37188831069520    4.96091585479863    0.67091491254276
H        -1.17626380252472    3.38931786346123    0.63282675758675
H        -0.88082160266813    4.26598101872377   -0.87340560497783
H         0.09687132346170    1.33693222283759   -0.12184670811896
H         1.68957284211995    1.51782630816533   -0.86642723148103
H         0.25543587624863    2.13051839582934   -1.69619776022030

