50
CSD_code = YOJDAC | q = 0 | S = 0 | Stoichiometry = C30H18NiSi | MND = 7
Ni        4.40473406746442    0.66271524982955    1.19226510879016
Si        2.71517165984645    1.71543574250077   -0.11778330831395
C         2.61754381358495   -0.13979287682094    0.28510611602022
C         3.18923492674463   -0.96248099491645    1.02271087076321
C         3.60262340235205   -2.13125243367190    1.73290269383707
C         4.82224183421974   -1.99489270820000    2.43549374388818
C         5.48390251671856   -0.73597040307758    2.31975199660516
C         6.17547399171825    0.28891931217630    2.24702764835622
C         7.10003895513900    1.37479730768539    2.19780033373463
C         6.72433682502661    2.48504944001632    1.40669076091752
C         5.44232849058337    2.36905420323797    0.78617825730725
C         4.42024660057764    2.52561492845490    0.09471672344889
C         2.90924018835294   -3.33433435005293    1.77363328367431
C         3.42343787699628   -4.38765713990076    2.50897970805995
C         4.61962467640390   -4.25293047088318    3.20254346493231
C         5.32433903184771   -3.06311585017140    3.17108539724345
C         8.32323599466848    1.37440401354232    2.85959830508493
C         9.16187243381785    2.46687215319412    2.73104196224217
C         8.79404005530702    3.55574419710596    1.95067519685020
C         7.58006500290638    3.57276611556856    1.28684425386929
C         1.98661385175077    2.10581950138961   -1.80131107591404
C         0.70295928701726    1.67626765269184   -2.10602058898663
C         0.12151250481352    1.99004867151403   -3.32068926521748
C         0.82377271338205    2.74050394192622   -4.24942035406307
C         2.10617051630722    3.17268388770303   -3.95656279311133
C         2.68036797043421    2.85650409432865   -2.73830167149547
C         1.75805218949736    2.45639288015511    1.34834867455427
C         0.60812124692498    3.22108599644231    1.23279147661495
C        -0.02177183252757    3.71434194573980    2.36283564256249
C         0.49598034001048    3.44653365255236    3.61863055190854
C         1.64724499162151    2.68407280847733    3.74676495147644
C         2.26750656083855    2.19611160597968    2.61446712835028
H         1.97913543989712   -3.43450477004658    1.23432901728635
H         2.88825574369634   -5.32500824759743    2.54507905472003
H         5.00439686382016   -5.08615753262474    3.77177514051028
H         6.25531141175254   -2.95539562916478    3.70814818896765
H         8.60652187780328    0.52571463640202    3.46476196447987
H        10.11303439718259    2.47255752989709    3.24250119817203
H         9.46273992721165    4.39915670114406    1.86214702958018
H         7.28969107801489    4.41820894762351    0.68107956598546
H         0.15523362692047    1.08917191856234   -1.38287946912969
H        -0.87972885336639    1.65087940642602   -3.54624022005947
H         0.37220444036470    2.98679421851987   -5.19981332578070
H         2.65729260019104    3.75716237493972   -4.67970203312551
H         3.68087229911957    3.19522949567663   -2.51039455655986
H         0.20704929936978    3.43013809212159    0.25141789642185
H        -0.91854059164766    4.30943486062356    2.26510900508152
H         0.00389595658875    3.83161834309022    4.50004804352565
H         2.05333180141838    2.47490374778509    4.72604659213226
H         3.18463999731524    1.58878383210081    2.71019171379967

