74
CSD_code = YOJFUZ | q = 0 | S = 0 | Stoichiometry = C34H32BClFeN4O | MND = 4
C         6.98831686023347   10.99998908945220   11.23956452371137
H         7.95447196311507   11.12246697955826   10.79376662210443
C         5.76518542054873   10.73827088179504   10.65747698482538
H         5.54703331233862   10.60009542277377    9.61837949384518
C         4.86843287716382   10.64411481677381   11.72990503736067
C         3.46182515975076   10.27021231591895   11.65763246323291
C         2.93073305042183    9.35974503590403   12.56769797529823
H         3.56970134364713    8.94785893811269   13.33738648092667
C         1.60767452120394    8.96844880638641   12.47238749431780
H         1.20848325075704    8.25580953214335   13.17941349974783
C         0.79992778884102    9.47683377030741   11.46735883956868
H        -0.23296343178108    9.16964228154936   11.39382180549591
C         1.32374012189530   10.37506618316706   10.55165673648181
H         0.69826484371062   10.76987345428834    9.76409648832390
C         2.64661357278312   10.76709559414852   10.64128445520628
H         3.05366135665676   11.47077943500615    9.92956700192423
C         7.85462786503727   13.68027322918617   14.74947644950983
H         8.86161987158223   13.89819166524916   14.45692560393170
C         6.95003388522423   14.43838516759452   15.46273424216186
H         7.09355995440210   15.41588686912172   15.87529311283724
C         5.80941158969401   13.63086222078985   15.57456740611967
C         4.60515318915544   13.94353308825209   16.33243439929667
C         3.97548552924926   12.96449674079877   17.09749311928880
H         4.37585994573991   11.95928669836022   17.09982907280360
C         2.87335522974329   13.28136105882098   17.86815527618985
H         2.39741417794238   12.51525964323359   18.46281074930071
C         2.38592378704505   14.57871939226689   17.89067996293709
H         1.52692323282813   14.82686687507705   18.49704405178011
C         3.00975461900078   15.56036588605645   17.13777370524987
H         2.63480026002032   16.57373414536140   17.15432117411524
C         4.11393900925496   15.24773026368288   16.36585412598069
H         4.59484268185536   16.01421423190048   15.77552209181508
C         9.31322483655333   11.49132636664815   13.18411539469926
C         9.61363950603758   12.53699481018047   12.31013032809764
H         8.82307879089351   13.20387444771480   11.99017944499266
C        10.89820367188702   12.74644277623559   11.84072474925653
H        11.09988344541281   13.56591930274283   11.16431595847964
C        11.92571988233866   11.90749464162725   12.23708763867245
H        12.93046614809639   12.06783724160496   11.87280681475961
C        11.65355114381162   10.86313359150534   13.10317319737350
H        12.44917390975818   10.20270828180656   13.41833994200253
C        10.36460972522979   10.66263138190110   13.56667507179315
H        10.16495327701898    9.84356209955250   14.24281094249713
C         7.61898342553719   10.00137954564523   14.72866530189255
C         7.74975667392143   10.14049411643997   16.11571396873650
H         8.01440561278426   11.10556681489038   16.52884208849363
C         7.59392627777546    9.06305011313845   16.97183653505467
H         7.70406430619507    9.20225361609310   18.03816637116137
C         7.29965418687920    7.80906786339850   16.46567774026075
H         7.17270562327115    6.96874708982073   17.13230633918227
C         7.17108875655765    7.64018746226032   15.09790897332139
H         6.94833995844381    6.66266986320597   14.69345559559913
C         7.32905408482869    8.71971448424431   14.24549513964082
H         7.25766704246911    8.56059690457259   13.17704968319018
C         1.62353555788517   11.42282094776200   15.01710953546795
H         1.77451107729158   10.93931113445610   15.98132661624772
H         1.17707078207091   10.70402125160494   14.31772821356308
C         0.77390304610201   12.70192451696847   15.09125014965938
H        -0.22313583496539   12.52440665402383   14.69287451987112
H         0.67948684839147   13.04928644471122   16.11780496079704
C         1.55708592446172   13.71697931022450   14.24449503860701
H         1.97764686266687   14.49600054553085   14.87744523276435
H         0.94153488097453   14.18269810133622   13.47818712275586
C         2.67583770493285   12.87259139376104   13.62609861718214
H         2.35856066022022   12.46740210315919   12.65581139863620
H         3.61675307391231   13.40803938697817   13.50606903382458
B         7.81764273252357   11.26034189851160   13.72409256479249
Cl        4.17779649365802    9.37983446378131   16.05597230900306
Fe        5.01319205936952   10.71932941182822   14.82733431709628
N         6.81408682529862   11.07143701134196   12.56136497538746
N         5.53468033101738   10.85869059142729   12.87411866774851
N         7.27634839575933   12.51463855492223   14.44983840066257
N         6.03735963987499   12.46866340241952   14.94346226995642
O         2.90154581379899   11.81276034699781   14.53692839112077

