31
CSD_code = YOJGUZ | q = 0 | S = 0 | Stoichiometry = C12H14Cl2O2Ru | MND = 8
Ru        1.80474166593653    2.77156263017736    0.89956617644379
Cl       -0.49393846849214    2.77026257442721    1.45428532231407
Cl        5.47510744553750    2.77155294306301   -2.32438142811121
O         2.40425333058401    4.94685287677658    2.87132828879782
C         2.16722439770792    4.09500653730810    2.14646504372264
C         1.24578141254070    3.49831564320945   -1.15222340633230
C         2.56038351984783    3.94138798857206   -0.88902075259673
C         3.37860736674560    2.77170172327763   -0.64460917393839
C         0.08178144604060    4.32035541214376   -1.61022081805082
C         3.09409198037793    5.33435810790679   -1.03223599878476
C         4.86564955453191    2.77149145687273   -0.61919280522825
H        -0.82360462587200    4.02940500238324   -1.07824498041383
H        -0.08090297079164    4.15890774710796   -2.67741816567244
H         0.25422460691309    5.38048980082523   -1.44048877273809
H         3.85288589912489    5.55159995760486   -0.28246667813944
H         2.30184595019031    6.07364766418640   -0.94192407662154
H         3.55226024914315    5.43608393898319   -2.01808795158259
H         5.27715718747263    3.66418238780873   -0.15046887795348
C         2.16816334682303    1.44809650473902    2.14613428136148
C         1.24566882557226    2.04534260503910   -1.15225613227086
C         2.56017055673469    1.60210004779650   -0.88890430792394
H         5.27688230876105    1.87859211079567   -0.15063159384428
O         2.40814441967525    0.59734519838105    2.87130663811413
C         0.08123031902445    1.22364883464988   -1.60979895288122
C         3.09400056732151    0.20909822308153   -1.03157208241477
H        -0.82353293136008    1.51399622510893   -1.07634824193353
H        -0.08277110200989    1.38628752137948   -2.67662652352387
H         0.25395382505147    0.16333532618374   -1.44134863863715
H         3.84935231141053   -0.00950229560861   -0.27870405328875
H         2.30104227210180   -0.52993086536501   -0.94574974874281
H         3.55654533335494    0.10842617118486   -2.01546158912905

