57
CSD_code = YOJJAJ | q = 0 | S = 0 | Stoichiometry = C26H24Cl2F2O2Ti | MND = 12
Ti       -0.12903118877156    3.25766873297497    4.71013859116396
Cl        1.23180382250624    1.69254679455722    5.52592362930114
C         1.88469631609039    3.72196669726908    3.55992053626703
H         2.87008497356785    3.39436803299299    3.86628862301716
C         1.30003524370766    4.96823621202305    3.84983310847280
H         1.78376743444960    5.77755399923123    4.37972154283045
C         0.07356141114912    5.04825759667253    3.15076515506011
H        -0.54304920952222    5.93141597040432    3.05539595974362
C        -0.10310709485936    3.84584320683686    2.44147445031324
H        -0.89961545337120    3.62984612566371    1.74008597457582
C         1.01502520077691    3.01124568737470    2.69748566893457
C         1.29854040349916    1.68569629279606    2.06164141468757
H         1.86288329270668    1.05428019609986    2.75934326564401
H         0.35727962643444    1.16582491210183    1.84698157445116
C         2.08493106535118    1.80775078903533    0.77787464000999
C         2.40907600824797    0.66009948036082    0.05880727067725
F         2.00542136175930   -0.53819398580826    0.53371393430650
C         3.12337957325375    0.68873763969881   -1.11650816570329
H         3.35409498428985   -0.22239718697191   -1.64280433033533
C         3.55135945735943    1.91520099833971   -1.62683929039521
O         4.25197187528078    1.85832323958279   -2.79003206210164
C         4.72147912221008    3.05986139263497   -3.35244856757613
H         5.25100537269838    2.77244589366173   -4.25926666175776
H         5.41261955837653    3.57581672301230   -2.67839458518800
H         3.89697551634949    3.73120762815415   -3.61282408726997
C         3.24065940413090    3.07742521809392   -0.93106863253896
H         3.55326329537151    4.04267676144540   -1.29540474180228
C         2.51868341573582    3.01249971172160    0.25059321185712
H         2.28952375527343    3.92946571312001    0.77251008606045
Cl       -1.48874869612414    1.69195637475232    3.89241003842732
C        -2.14116168302403    3.72196995917629    5.86345797601407
H        -3.12673166349795    3.39433549407619    5.55781446899196
C        -1.55639568397542    4.96789198608706    5.57233416410578
H        -2.04037275458797    5.77708867902649    5.04249219274369
C        -0.32916682509782    5.04773080292933    6.27013641188121
H         0.28748020032634    5.93090748482123    6.36509581990282
C        -0.15179406595133    3.84520416384557    6.97912376888702
H         0.64533398858801    3.62916080045651    7.67981998724881
C        -1.27053886343420    3.01095935485913    6.72463106229623
C        -1.55357399910272    1.68541881932742    7.36070660594114
H        -2.11742809703787    1.05355166738607    6.66301296255665
H        -0.61215622334709    1.16602062980043    7.57579285984468
C        -2.34042209639619    1.80753432212638    8.64418163887750
C        -2.66531959120611    0.65991508194690    9.36295575443167
F        -2.26174973997354   -0.53846062063690    8.88818199664272
C        -3.38030815141518    0.68866829385662   10.53785153655048
H        -3.61161431921373   -0.22244509060745   11.06392959163254
C        -3.80827375449168    1.91520951215922   11.04800918208101
O        -4.50980065168871    1.85842578809475   12.21065157497565
C        -4.98039499065249    3.05994208497902   12.77220187932491
H        -5.51144737034722    2.77250990016701   13.67811678837392
H        -5.67042485140268    3.57577004476730   12.09692443113809
H        -4.15642975984994    3.73141066942574   13.03396690759306
C        -3.49665397970902    3.07741441650628   10.35262549461523
H        -3.80907874605926    4.04274022138814   10.71691712039121
C        -2.77395507560851    3.01237765511504    9.17141873234799
H        -2.54419109975607    3.92932103106004    8.64973153949232

