53
CSD_code = YOJMEQ | q = 0 | S = 0 | Stoichiometry = C18H28Cl2N4Pd | MND = 4
Pd        2.90539235796482    4.90422186162622    6.77789954841140
Cl        1.45236922373246    6.67288165215497    6.76944234103183
N         2.08151436498696    4.25712242159394    5.10528101639988
N         0.57508175081145    3.82778400413556    3.57200609413492
C         0.79543120483868    4.27088738365843    4.82189652755575
C         2.72314199696723    3.78778211628110    4.00022243335593
C         1.79267240597813    3.51819893866469    3.04019423054424
C        -0.71000109098285    3.73396816761054    2.91682938897892
C        -0.99718155114828    2.29954452649686    2.46643045587257
C        -2.37513452637570    2.22633664489731    1.81421334593855
C        -2.45901375013936    3.18491938708780    0.62980137664685
C        -2.15891905807888    4.61335918060563    1.07481636173276
C        -0.78092139725407    4.69312032468626    1.72527668017959
H         0.02157516693531    4.61106945639870    5.48667846333356
H         3.79030982334337    3.66134475749666    3.97865360093316
H         1.91182269176814    3.14022166755103    2.04673777510400
H        -1.46194889039092    4.03245386211803    3.65637667691734
H        -0.94880895922188    1.62825012267641    3.32624077419978
H        -0.23858258591544    1.98272762626625    1.74837576328348
H        -2.56797216762850    1.20500511199129    1.48232158985701
H        -3.13919547927711    2.48887487695399    2.54917748718061
H        -3.45462160108356    3.13731964339230    0.18606213072340
H        -1.73814931973693    2.88313590814422   -0.13330091371727
H        -2.91719655311393    4.93817776081064    1.79043279194917
H        -2.19786555023328    5.28777671722256    0.21815908071372
H        -0.01592052023726    4.42293579434734    0.99466202961144
H        -0.57962372603998    5.71096432384903    2.06493843031000
Cl        4.35783491969495    3.13529994777188    6.78493954191083
N         3.72888105801413    5.55138413324007    8.45068278049325
N         5.23529668353152    5.98074812400049    9.98393774428290
C         5.01494815669239    5.53769126708394    8.73403741299346
C         3.08721792102688    6.02071697398403    9.55575672971611
C         4.01771326486568    6.29029199702215   10.51577626287879
C         6.52039381627154    6.07453612110583   10.63904130563970
C         6.80756172342945    7.50896527136575   11.08939820337071
C         8.18550152659230    7.58217785317174   11.74162998402899
C         8.26936181310956    6.62361162720898   12.92605947451184
C         7.96927717694684    5.19516123997763   12.48106672359785
C         6.59129330297215    5.11538667295438   11.83058938345695
H         5.78880106385652    5.19755059600414    8.06922877908452
H         2.02005185816243    6.14713443447403    9.57733501079605
H         3.89856022627336    6.66822533305721   11.50924748158752
H         7.27232886790507    5.77603433110836    9.89948197626219
H         6.75918834458947    8.18023949869202   10.22956790381276
H         6.04894531518063    7.82578591409673   11.80743266552155
H         8.37832810795263    8.60351283945194   12.07350841545571
H         8.94957310292219    7.31962475904402   11.00668181225021
H         9.26496247307348    6.67121909289741   13.36981661251074
H         7.54848258887799    6.92541087364711   13.68914192257555
H         8.72756740809628    4.87032832836806   11.76546888466004
H         8.00820129075018    4.52076046322938   13.33773513515783
H         5.82627453582037    5.38558025233942   12.56118266538946
H         6.38999919292386    4.09753781598549   11.49092970687230

