77
CSD_code = YOJMIT | q = 0 | S = 0 | Stoichiometry = C27H45NSi3Zr | MND = 8
Zr        0.70460317904781    3.65742572648442    1.69308567725983
C         0.18245722361624    1.28369919131740    1.48431483044839
C         1.11068516232978    1.47140448092401    0.41266115056253
C         2.42173066464003    0.99169678732163    0.21861237347508
C         3.07475586869846    1.25542967692540   -0.96302334762086
C         2.46757344219049    1.99335773506783   -1.99005397866381
C         1.18725041074599    2.47781491429139   -1.84368490848227
C         0.49843881893441    2.23990200919120   -0.64942796177007
C        -0.84051512980182    2.54046672068400   -0.23020235826460
C        -1.91214627464926    3.16598059745086   -0.87750051001418
C        -3.12812282013555    3.25264551151254   -0.23578610487551
C        -3.30189373114091    2.70637401711952    1.04474633082530
C        -2.27813042355032    2.06567967046002    1.70221415119865
C        -1.01549279724067    1.95327446915483    1.08406535042124
Si        0.72218058021053    1.06130052855760    3.29084089479005
C         2.08492801847233   -0.28297751132401    3.49853355866031
C        -0.69512562126080    0.39091745108208    4.41182457368785
N         1.14791526483616    2.71802906262527    3.50322360185155
C         1.96259030684143    3.27688602905655    4.56716371201533
C         1.51059633994054    2.78738363138056    5.95267058523502
C         3.44169420782786    2.88764844382775    4.36669097030968
C         1.83232404325958    4.81442396598423    4.52951563912257
C        -0.71230539396387    5.38251197484287    1.67669968150295
Si       -1.75054015368334    5.73284754556582    3.20227919236237
C        -1.78261818842614    4.16174194041930    4.31070816874000
C        -1.03322799626396    7.21334848228511    4.20035043189131
C        -3.58452076402832    6.18277927906238    2.85099263472998
C         2.69077924311516    4.39029660103877    0.95715865416950
Si        2.57584601139120    6.00460912628672    0.00847236119935
C         1.08473454726209    5.90096741702236   -1.20209588283729
C         4.09113618589967    6.49065992996865   -1.06827487533424
C         2.34731660620229    7.44247933546277    1.26728382887366
H         2.89440901577376    0.38330604005943    0.97559552375788
H         4.07551542580274    0.87659918606889   -1.11612427741949
H         3.00921920764775    2.16478479039480   -2.90820889257453
H         0.70823477607197    3.01317947632000   -2.65272628934494
H        -1.79044170112042    3.56091334129143   -1.87833387347782
H        -3.96405061053816    3.72964864600258   -0.72531326240801
H        -4.27556593745712    2.77289725553628    1.50941571418451
H        -2.45493337418018    1.59052923867422    2.65645658071649
H         2.20438209006642   -0.53515553921935    4.54774404513825
H         3.05386367226496    0.03710340180487    3.13101507301886
H         1.81588761850481   -1.19585764299960    2.97727728474971
H        -1.25528262762604   -0.39198392186154    3.91070410351565
H        -1.39421834231343    1.16583286334225    4.70745822446797
H        -0.28952832886270   -0.03779684958744    5.32260575155567
H         0.46295436043961    3.02724810258893    6.11017292679558
H         1.62983549092426    1.71046579733654    6.02342156932180
H         2.10331730037247    3.25808185077184    6.73353436422823
H         4.09051753184327    3.47661565128110    5.01110930091926
H         3.57996547122206    1.83703480224659    4.60367066487684
H         3.72637112027476    3.04557322862886    3.32567740850991
H         2.09089554301981    5.19345308905135    3.53189995882933
H         2.49606666939365    5.26550384450422    5.26610054444120
H         0.80855720725166    5.09827613412040    4.76752292213327
H        -1.40437072396685    5.09947103844559    0.86604215139945
H        -0.23848371356508    6.31489840428939    1.34888475701190
H        -0.94324367499667    3.50368404895194    4.06662123181308
H        -2.70363304592291    3.60708097842455    4.16092416351475
H        -1.73308845104236    4.40732089494730    5.36816076185980
H         0.05198705641700    7.24050305847762    4.17561696420980
H        -1.33968103655490    7.18254780814111    5.24095110079927
H        -1.38775081489642    8.15257748225556    3.78854918155482
H        -4.06368500294069    5.40889159492413    2.25906235689468
H        -3.66298658409736    7.11246193074793    2.29595991809577
H        -4.15666942627904    6.29876623264465    3.76642748488628
H         3.45315906691399    4.49216911135816    1.74198254832145
H         3.04919469639255    3.59869338723557    0.28250569019586
H         1.42240597753688    5.64624378745523   -2.20194518048042
H         0.55738208850737    6.84712129999382   -1.27549093119422
H         0.36743260070745    5.14022076421228   -0.88826178233992
H         3.92697995157944    7.42401902551977   -1.59822107792924
H         4.30344775180730    5.72615041796736   -1.80959518113810
H         4.98341824953243    6.61215616520561   -0.46203327215417
H         1.93037354196495    8.32452442290689    0.79200746793321
H         3.30398985276673    7.73133793715881    1.69118423054473
H         1.69165323006896    7.16700268138727    2.09103362477153

