74
CSD_code = YOJNOA | q = 0 | S = 0 | Stoichiometry = C25H38FeN3O6P | MND = 8
Fe        3.85862575301796   13.61404722417058    2.47643100424173
P         5.87416302410108   13.96147799759882    3.39843380650811
N         7.05715180981936   12.69138448901630    5.53374415539962
N         7.00838270485348   13.04202689652286    2.45239970434021
N         6.86772516057905   11.66065386441073    2.36028161300410
O         4.87730596567792   13.01847763497258   -0.15908078932620
O         3.83148656110523   16.31990409899630    1.46244293798985
O         8.15122330611833   13.12955755202307    0.48153994223371
O         7.29328614780142   14.98713960392706    1.49719531291121
O         8.81662876060611   11.12798499571343    3.42892877811305
O         7.57048546648859    9.58521918372752    2.31061736385904
C         4.49453206011463   13.22754472023575    0.90485250583428
C         3.82437216947046   15.26379084236181    1.91293932649765
C         5.88847617449986   12.82135049287101    4.85113032436149
C         4.69792903500002   12.29588300643646    5.20934129614806
C         7.24175791035654   11.64566788615159    6.50151951901243
C         8.19183756442057   13.54297910284975    5.29487604269229
C         7.55776962643969   13.68748503482107    1.36681668612580
C         7.76438200979869   15.94904183337905    0.51903679247473
C         9.28871939615433   15.90616198168689    0.43348458286465
C         7.12173283960198   15.65756670479300   -0.83529710625890
C         7.28739206525585   17.29338923776681    1.06553395116651
C         7.87544389551072   10.81525190126843    2.75026027761049
C         8.40397086603103    8.45229658316186    2.65994758993237
C         8.41831704043121    8.25882821670250    4.17601763651480
C         9.81777644447633    8.64497575656018    2.11513700543888
C         7.72050461578273    7.26893072385940    1.97381770292268
C         3.58172526636977   12.48769512369160    4.27895573517899
C         3.27956298484521   11.66682000116257    3.14659004216488
C         2.12589479369837   12.21449451973760    2.50219286460497
C         1.76201218288576   13.40398199340251    3.18609935684203
C         2.66825101811128   13.58484987458034    4.27876464896328
C         3.86293194866221   10.31097783564269    2.89469415495867
C         1.36661137850151   11.57033074075302    1.38759351978909
C         0.54606298661103   14.23279512267612    2.91919457457552
C         2.56023575696804   14.60710897600029    5.36583602602017
H         6.28065676104212   11.31979016848021    1.60525964648740
H         4.51526296262714   11.76288367585036    6.13182428764543
H         6.59019354449146   10.80280929536014    6.27076255559118
H         8.27665669025633   11.30343212897148    6.46166556794750
H         7.02371119417825   11.98835007217790    7.52078564707065
H         7.88354925332864   14.38907495856730    4.67796988226901
H         8.57356882263690   13.92083135797192    6.24813709527595
H         8.98656526884425   12.99845372360373    4.77782972717385
H         9.61797398379004   14.94452433400395    0.05001149794433
H         9.63988002758299   16.69109350814855   -0.23054482110867
H         9.72119298056722   16.05689133430391    1.42013589600554
H         7.43946641974965   14.68494753131611   -1.20092752367302
H         6.03813915205942   15.65928859282880   -0.73813842172707
H         7.41426979414361   16.41854381133875   -1.55308908911272
H         7.72169196724073   17.47066795642772    2.04534331154811
H         7.58098310361936   18.09391378330282    0.39342482603332
H         6.20607563626248   17.28725975417404    1.16529594578530
H         7.40129447894382    8.16445312588856    4.55083173140123
H         8.97057923464536    7.35705482063780    4.42452785469205
H         8.89368530754252    9.10872050743284    4.65707401140418
H         9.78124671134532    8.83459459658058    1.04501265862943
H        10.29663810196169    9.48971106469499    2.60176330359325
H        10.40571553787167    7.74958939866219    2.29713900757468
H         7.68307509487133    7.43422086237440    0.90059698672208
H         8.27076043723587    6.35454933814924    2.17382692838508
H         6.70372284198857    7.16072581842637    2.34225837517034
H         3.20051533852018    9.54275204459533    3.29826258273089
H         3.98869102051490   10.11939932090171    1.83097044675608
H         4.83107736098461   10.22423454064467    3.38215323017744
H         0.58690628889239   10.92355598469178    1.79436751892544
H         0.89209632275751   12.31568433937387    0.75380137655679
H         2.02431109809370   10.96180318864112    0.77211089804425
H        -0.31269208687319   13.80730693734724    3.44189879104536
H         0.68743996659982   15.25135329217411    3.27126596739102
H         0.31593353283590   14.26243967043064    1.85676076855004
H         1.78277217864088   14.32145083562482    6.07651686001382
H         3.50717732457947   14.67764564413284    5.89669081434292
H         2.31354965545927   15.58722692814573    4.96465497101914

