27
CSD_code = YOJPUI | q = 0 | S = 0 | Stoichiometry = C12H8Cl2N2O2Ru | MND = 6
Ru        0.97746693169860    1.27065631571470    1.20890273322963
Cl       -0.95585223818563    0.29243316059905    0.28299870860963
Cl       -0.10974474423751    1.50454428743301    3.31129257185456
O        -0.45797998150421    3.80771193506486    0.52141239063630
O         3.40108307686609    2.45240867780758    2.52208598738118
N         1.48339657799880   -0.66316699072345    1.57808610097711
N         1.77591467862706    0.75131477033290   -0.59192282904513
C         1.31651897888422   -1.29087473473749    2.73515243371765
C         1.37818837474162   -2.67034830287907    2.84809297748348
C         1.62726953722405   -3.42257774082090    1.71083565648789
C         1.80946055113015   -2.76871840015769    0.50526667972145
C         1.72516549740862   -1.37801030567781    0.46254703019786
C         1.90017970512170   -0.58086346239904   -0.75560730369621
C         2.19033249577842   -1.12448189660025   -2.00670636534392
C         2.34555018739758   -0.28824003895468   -3.09579127174812
C         2.22845925028339    1.08195462157970   -2.90582843387733
C         1.94382781099628    1.55440905610715   -1.63813186626099
C         0.17530090131749    2.89685178583114    0.76690832545503
C         2.49489409876907    1.99755975146061    1.99747023129407
H         1.10131367118343   -0.66137438786318    3.59222285753375
H         1.22151620475525   -3.13806615138147    3.80631529576436
H         1.67266933201192   -4.49972994524686    1.75818863193156
H         1.99504981551855   -3.33453239269764   -0.39259626009308
H         2.27784038921271   -2.19118440958805   -2.12910203303519
H         2.55227486424825   -0.69516484262927   -4.07319229100406
H         2.34376404545662    1.77194538724545   -3.72558277817601
H         1.84163998729708    2.61594425318188   -1.44911717999615

