33
CSD_code = YOJQOE | q = 0 | S = 0 | Stoichiometry = C10H14Br2N4NiS2 | MND = 4
Ni       -2.09869076117009    2.73799387334928    2.45424299973955
S        -1.15206688970005    1.53925317069799    0.83995817622987
S        -2.56322268294177    0.83983420077718    4.41746429872028
Br       -0.31961665261709    3.78187179340461    3.31434018496066
Br       -4.13197753788070    2.69328382463598    1.65130336259982
N         1.52010649902414    1.97363237566523    1.14361182445872
N         0.78149361438101    0.24996690447349    2.25679183230404
N        -0.00385591575923    0.25785542048751    5.06884895300086
N        -0.76947522679503    2.05152225266822    6.05384849730601
C         0.40887322352901    1.27996691656595    1.46002542141944
C         2.58664613176660    1.40370024434535    1.77487003049453
H         3.57494409982206    1.80483820784503    1.69010815364227
C         2.13266126793809    0.32752222146060    2.46134761636729
H         2.66414611274884   -0.38087234464941    3.06081688981782
C         1.54265603392078    3.17523089801233    0.35921733234538
H         0.66272617506293    3.18950569164868   -0.28311138374384
H         2.44594800713632    3.20333333554875   -0.24637624848984
H         1.51118252628923    4.04605129696566    1.01816441617676
C        -0.13085107683834   -0.72415086673678    2.79259564074386
H        -1.14435872755477   -0.35091832062651    2.60018836247052
H        -0.00578239125518   -1.67943768209821    2.27430079451556
C         0.04334075021522   -0.95479045733397    4.30069629615166
H         0.99348418926374   -1.44838711945209    4.51464242288524
H        -0.77673247584937   -1.60903337458153    4.61677957293208
C        -1.09613825193259    1.06399277189622    5.18683701679708
C         1.00833065951464    0.77690165815964    5.84322095257377
H         1.97098252222035    0.31402160225997    5.90221402185721
C         0.53031289060733    1.88508531336876    6.44815414104862
H         1.00891969933898    2.57392253167050    7.11174609243324
C        -1.63960793794745    3.12249693924451    6.44468633684222
H        -1.11794035007768    4.07414653260455    6.35243486202965
H        -1.98110811416929    2.98546579523733    7.47203456323006
H        -2.50632941014444    3.12059439239537    5.78249656613073

