37
CSD_code = YOJVOJ | q = 0 | S = 0 | Stoichiometry = C16H16Br2FeN2 | MND = 4
Br        2.59646579197157    2.03773605147800    5.28714508952129
Br        2.60565673850426    6.13349137669282    4.67761527997404
Fe        3.37704956460497    4.07869114997057    4.94875523908763
N         4.82413918018215    4.16324047759235    6.08903367888676
N         4.71585218984963    3.96770914754547    3.68517097032559
C         6.02624149932625    4.09044980740124    5.53748968085428
C         5.96323032384834    4.00882097339213    4.12897960194554
C         7.31173647442069    4.13895818086991    6.30102600596331
H         7.13422615985129    4.44354299027267    7.32929923682152
H         7.99474343052103    4.84529052997151    5.83312016873988
H         7.79090201898126    3.15976863723558    6.30527829873457
C         7.17505526386521    3.92865617805642    3.25551645366938
H         6.89946655721218    3.63558054494960    2.24569016577973
H         7.87549115681717    3.20003740706207    3.65920139367397
H         7.68040967801065    4.89364866481758    3.21299591637120
C         4.59869186534927    4.12116698422165    7.46565014915932
C         3.87044953844955    5.14134564092996    8.08051773045487
H         3.55173122156561    5.99120476662290    7.49593477647673
C         3.58029938439291    5.06519009439148    9.42937929760942
H         3.01941108534291    5.85968056262470    9.89788241574839
C         4.00285973182555    3.97777777669556   10.17638021780011
H         3.76942166766046    3.92028921303503   11.22856063848062
C         4.72075851552504    2.95980570237440    9.56842034547535
H         5.04490287962024    2.10644756817867   10.14482835121085
C         5.02099246496169    3.02549758671181    8.22264706188898
H         5.55794330235322    2.22527992748565    7.73574891704743
C         4.37042923808063    4.02554410058524    2.33438461326035
C         3.56027778992476    3.03158352826086    1.78221057797152
H         3.27141528598490    2.18611747728792    2.38836981097585
C         3.15124944995966    3.12745303915112    0.46578122735774
H         2.52725935116468    2.35326422315688    0.04555808704907
C         3.53549268431195    4.20886861532861   -0.31009672468748
H         3.20870228356930    4.28228769716255   -1.33612872102312
C         4.33521781383313    5.20061651984353    0.23590788407755
H         4.63009498120461    6.04951336662750   -0.36242207007016
C         4.75434032833705    5.11492878914643    1.54835717118693
H         5.35599310861595    5.89561470286719    1.98911106220290

