41
CSD_code = YOJWAW | q = 0 | S = 0 | Stoichiometry = C18H20O2Ru | MND = 8
Ru        0.80786832635118    3.32790144833824    2.25320464025387
C         2.65472163739288    2.09553265243194    2.03541048907299
C         2.73388222571858    4.40640689578282    1.97770587176513
O        -1.12784259049348    1.18375473343896    3.04231743916869
C        -0.41396198536196    2.02244635070030    2.70988736900426
O        -0.98834075351610    5.51844667358744    3.22210616872640
C         2.81173632982818    3.22430976815431    1.17673888295154
C        -0.32854716393186    4.66701428523734    2.81782407166477
C         2.65725907822455    3.99674789455052    3.35964970056753
C         2.85304916840068    4.90215935687260    4.54021332892365
H         2.38270492384437    4.49681282142666    5.43404256510270
H         2.43867666917083    5.89144895344793    4.35490287358490
H         3.92185430377903    5.01369653990116    4.73845107499710
C         2.92223554398565    0.66714889257822    1.64831492676432
H         2.61954713418558    0.47503140296383    0.62075137782470
H         2.38841803369197   -0.02583051057676    2.29639235184433
H         3.99121022767245    0.45684883453472    1.73350398394842
C         3.18501199538830    3.17870001395242   -0.27451192325721
H         4.27382461111442    3.18220280105847   -0.36475025085216
H         2.79414853001848    4.03933608408163   -0.81389739290885
H         2.80438458707932    2.27986760571962   -0.75504641610139
C         2.74409608339839    1.72207978416066    4.62060826091484
H         3.80338541585437    1.54136779063369    4.81910998742095
H         2.25606381303816    0.75819556866729    4.48902413459605
H         2.31319073411874    2.20661218486280    5.49461675042818
C         3.11093228189366    5.78557607922147    1.51149149790981
H         4.19625013591636    5.90614199163097    1.55564086975101
H         2.65892212719991    6.55283710719572    2.13759499154359
H         2.79288440985497    5.95177224361747    0.48386533153587
C         2.60426516993220    2.57840859399815    3.39632683179367
C        -0.15292803867441    2.28451022485869   -0.42947668924752
H        -0.08904425969410    1.30805062418108    0.04028446780992
C        -0.07829954556806    4.66177004846491   -0.32493632161101
H         0.04436594891361    5.58755232084598    0.22787178385131
C        -0.35624463581921    4.73349252266247   -1.68161910316637
H        -0.43717613274970    5.69868371284917   -2.16207164298965
C        -0.43134216395652    2.34954382097951   -1.78632347225639
H        -0.57142510013676    1.43744198299938   -2.34975056617384
C         0.03394142110079    3.43735938219382    0.32773096365596
C        -0.52964507949901    3.57589690321050   -2.41858482814055
H        -0.74453341766775    3.62922361457894   -3.47591438067171

