99
CSD_code = YOJXOL | q = 0 | S = 0 | Stoichiometry = C42H50N2O4Ti | MND = 6
Ti        6.20454342994735    6.53123502760246   23.61724756312573
N         8.39395076988967    6.28232794512275   24.98090088907615
N         5.67024172412965    7.64349422394315   21.33834701614764
O         4.66618475098192    5.87179618651610   23.02883818165725
O         6.53212721875508    8.24948452428466   23.73615393899875
O         5.76870889277947    6.16412225545028   25.29743436167834
O         7.34214544397961    5.57333580359558   22.68841514811231
C         3.72432738221973    6.39899165199315   22.17972265840537
C         4.48166952501207    6.90733462073004   20.91717851256055
H         3.83058678242598    7.52942217907310   20.27829498808816
C         5.08544834997269    5.74583297693517   20.13017493631408
H         5.53399911197777    5.05913865318248   20.85561386672020
H         4.36263150903529    5.21483633167925   19.51445997713387
C         6.17549119036500    6.43548356404210   19.32256380224494
H         5.74330342222686    6.92164712877104   18.44444734307937
H         6.94953155979064    5.74768681434878   18.98665099597049
C         6.70784700495011    7.47587082249841   20.31195135759155
H         7.62143674570542    7.11625519279808   20.78932834766574
H         6.91931420872799    8.43034550411140   19.80926322972202
C         5.44995912829130    9.01539445979522   21.74431504867725
H         4.41403364864158    9.12280271010659   22.07214376008837
H         5.62148707295205    9.72251046203798   20.91413924472134
C         6.37252225534071    9.37125142989512   22.95242370869793
C         7.73926284132043    9.88387249469724   22.44507155949163
H         8.26532960799746    9.08839798977169   21.92231143052422
H         8.34416351763310   10.21074070230266   23.28898838639349
H         7.60441699860754   10.72766009351536   21.77158094414428
C         5.70491880049516   10.49673683864596   23.77037742483519
H         6.35501174210950   10.78663250644349   24.59323766424549
H         4.76489876467242   10.13648754037181   24.18371163438891
H         5.51409164121303   11.36521356435374   23.14385366692099
C         6.45998791229354    5.50874968903429   26.28671957664444
C         7.88407850023522    6.13707544106388   26.34142820812511
H         8.56848739129118    5.53405339636294   26.96356619504197
C         7.83023196921691    7.58655363462421   26.82013479965321
H         6.98846355949507    8.06672149825518   26.31034872716192
H         7.71670208150619    7.68539316878611   27.89756277230434
C         9.14469760722176    8.14802035727867   26.29763295873354
H         9.13277376059897    9.23283427026383   26.20769357094295
H         9.96515758049074    7.86753678257698   26.96276525887481
C         9.28312000293711    7.45103473635573   24.94122251958159
H         8.95908810218935    8.11377904102173   24.13650598135016
H        10.32286368671684    7.14592683976237   24.75578685518597
C         8.95496291624236    5.08697235241651   24.38770636684944
H         8.51713910340416    4.21383849917535   24.87561765379210
H        10.05015139527050    5.03852310706508   24.51756359443298
C         8.59027525485065    5.01935571964975   22.87127375084400
C         9.65078878252915    5.77060731369426   22.03517631121352
H         9.43767892627597    5.64513647639551   20.97508610949739
H        10.64461165518562    5.37550108306543   22.23507459775435
H         9.63180697840428    6.83129780838734   22.27469465858065
C         8.58190961512068    3.54069155087912   22.42973728927653
H         8.37061571413519    3.47770748334495   21.36430728606273
H         7.80239327052252    3.00541025789833   22.96832905136611
H         9.54406108853236    3.07469685411886   22.63050264288344
C         6.50844854265706    3.99418204523053   26.03426617614377
C         7.12565115949875    3.12430518454775   26.92877183110580
H         7.61110090580922    3.50627439852402   27.81429263378648
C         7.12113789834853    1.75997400913418   26.69886184996178
H         7.60927646969972    1.09786924391175   27.39955561717558
C         6.48764119205695    1.24158991878005   25.58184907721729
H         6.48079102725167    0.17539361592408   25.40849663161960
C         5.85967764748359    2.09945700270556   24.69460795527046
H         5.35544831873057    1.70390408081314   23.82402190041421
C         5.86900482207743    3.46686513606349   24.91685911309733
H         5.38918852604815    4.14509124576035   24.21849195151167
C         5.71565582890589    5.65260632841926   27.61954696816771
C         4.33066959352340    5.75863428799668   27.57218026885380
H         3.84878061065729    5.76670349398111   26.60493106955875
C         3.58533862392874    5.85831038118243   28.73205741955209
H         2.50981670837503    5.94412535129709   28.67395090723191
C         4.21503205448995    5.84390144114425   29.96474743962327
H         3.63750345776198    5.92112031242897   30.87442980878102
C         5.59242199737550    5.72715539406716   30.02341559176547
H         6.09269814059985    5.71251763583405   30.98143334856802
C         6.33868792236085    5.62995561802754   28.86112796887608
H         7.41197200198609    5.54243730139424   28.94016760961866
C         2.68273391930463    5.32824647290780   21.83376222389363
C         1.96043602516825    5.30526043190665   20.64716706109924
H         2.13435980311124    6.04391742119554   19.87906409868653
C         1.00650434298638    4.32670045502280   20.42429898850423
H         0.45596812947779    4.32031603842967   19.49416334304721
C         0.75647678265536    3.36000143973056   21.38203574524063
H         0.01223003332785    2.59779947512324   21.20268491404787
C         1.46590637304694    3.38024291075254   22.57053277523127
H         1.27608200417209    2.63312946835000   23.32768269820999
C         2.41603986453733    4.35914910127270   22.79363346168534
H         2.97368393197518    4.38542344235033   23.71893846575480
C         2.91685540661308    7.51774682978826   22.85542887828593
C         1.88078236486422    8.17182957689548   22.19472626881746
H         1.64016423398124    7.91977758544255   21.17284400237175
C         1.14236254195134    9.14867391701753   22.83877645379529
H         0.34469902043032    9.65130979658204   22.31083187897939
C         1.41590345316090    9.47685872345963   24.15605365501851
H         0.83359529602930   10.23584093788219   24.65778367470604
C         2.43605498633456    8.82096043337762   24.82428190306820
H         2.65215061376865    9.06418180180357   25.85519312597621
C         3.18310775259192    7.84800093915575   24.18040761777211
H         3.99172777409323    7.33929981429408   24.69536730434895

