77
CSD_code = YOJXIF | q = 0 | S = 0 | Stoichiometry = C28H42N2O4Ti | MND = 6
Ti        6.44184507584533    6.06223331758568    2.22710901279069
N         8.79443840306861    7.09195480224686    1.53656811345143
N         5.84939662224142    3.49572630026395    1.86538225557197
O         6.53333230621111    5.93641936084079    0.47019267562167
O         6.38193541519501    7.79061371898247    2.53859328534010
O         7.53078600747037    5.15693893109992    3.27842814570250
O         4.84549612246924    5.78093782217423    2.90563665628574
C         8.58831978257958    8.47779315362653    1.96097713240321
H         8.32281150044806    9.09636104144744    1.09652737285617
H         9.50497062338892    8.89648393771417    2.39490393572889
C         7.41812348466051    8.57981180785018    2.98556249341946
C         6.95909808882081   10.04984186149893    3.06324338784112
H         6.15003124542805   10.13658296532829    3.78399098538517
H         6.58589020869589   10.37215218381779    2.09323418590390
H         7.78075163607360   10.69526389772093    3.36533124227548
C         7.86990568372853    8.11276686898010    4.38313229421432
H         7.05533628703390    8.27301964753215    5.08868343082192
H         8.74670578036332    8.66245511955628    4.72222054798598
H         8.07851186988891    7.04220277122933    4.34003815655000
C         4.48009871610341    3.48596988668101    2.38317308643817
H         4.47334135303290    3.10607559812998    3.41079930210129
H         3.83843474726058    2.82664101468829    1.78532466516337
C         3.88454133160166    4.92605382543824    2.41363862487237
C         3.45592069921898    5.37282059656102    1.00220589326468
H         2.97207315147392    6.34645311912031    1.07246112863009
H         2.76228513106422    4.66313687246459    0.55372593542504
H         4.35051927161796    5.47988928168786    0.38598634283412
C         2.65538315824084    4.93059343520724    3.34469587001921
H         2.22369512887337    5.92798853919536    3.36579685265966
H         2.95762649650614    4.66980849671579    4.35698066210819
H         1.90653513593272    4.22172364139556    2.99876142697792
C        10.04486827180143    6.57911454173038    2.07778230629360
H        10.92361462987531    7.03107050832839    1.58717623123659
H        10.09012057889641    5.49775805022618    1.97071026553021
H        10.08641001841452    6.81184892762332    3.13956396887664
C         8.66786981887284    6.94180961969678    0.08215638511828
H         9.16502478195635    7.78006348164110   -0.44412209643341
C         7.13747395034030    6.95536229117736   -0.23783622265198
H         6.72195366507275    7.93160458610420    0.08963361973510
C         9.24987200616035    5.63312854582302   -0.44597058218673
H        10.32258600700414    5.56828592372726   -0.28628220433769
H         9.06265604447499    5.57273044799624   -1.51635204889804
H         8.74695068810827    4.80045917930729    0.04359750629278
C         6.91417989492970    6.85150749298054   -1.73504920031782
C         7.18714425777999    7.93528987102734   -2.56185196233957
H         7.54167247787330    8.86142683440956   -2.13083904828317
C         7.00161481745047    7.83945818698280   -3.92915638020087
H         7.21843049487176    8.68779297200242   -4.56225620137011
C         6.53356979272386    6.66133235015977   -4.48755458672858
H         6.38705728860977    6.58882088348500   -5.55529360973477
C         6.24926951960107    5.58137734046708   -3.66967449240236
H         5.87910873724189    4.66119396791899   -4.09874058359025
C         6.44038054933237    5.67668700768030   -2.30268453569209
H         6.22239334366747    4.84486340327927   -1.64990747577648
C         5.89532027313620    2.87611568163843    0.54878527525135
H         5.74870466929348    1.78388699878503    0.60087178541309
H         6.84435413119596    3.08839507669725    0.06186694983206
H         5.10302379350867    3.30056410005120   -0.06389033339450
C         6.80062249263033    2.92538044804386    2.82647986064027
H         6.37871967635468    2.02122856914453    3.30737065824996
C         7.05710367562769    4.02429932286929    3.90868993097365
H         6.09204394418951    4.25373401532671    4.40772605628249
C         8.14363877585929    2.55319802655543    2.20347400938974
H         8.04630146797515    1.76618401248466    1.46080234589639
H         8.80793310754075    2.19746446380727    2.98871361142801
H         8.58169697018159    3.44234430315452    1.75238452849229
C         8.00067477791433    3.49968712690925    4.97495203065308
C         7.56222260820552    2.55670427169579    5.89758604953871
H         6.53797088081643    2.21172154805790    5.86496127241270
C         8.42404680505683    2.06276649074130    6.86008786060007
H         8.07277409849983    1.32885361009479    7.57106095799522
C         9.73356992965681    2.51067244721303    6.91824028205339
H        10.40464273882442    2.12582170909373    7.67212251423200
C        10.17440567747001    3.45763519366277    6.00998591179746
H        11.19331981403805    3.81504732136994    6.05354314958916
C         9.31300969928305    3.94672624030541    5.04406073431805
H         9.63963789315608    4.68626879172768    4.32857040555884

