77
CSD_code = YOJXEB | q = 0 | S = 0 | Stoichiometry = C32H41OsP3 | MND = 7
Os        2.48839580114106    0.23658581038757    6.00592402796645
P         2.62035933874608    2.02120235548128    7.46063806063123
P         0.78405960239997   -0.90938660877463    7.07634151253514
P         4.17410889628285   -1.10428754635348    6.83646879393757
C         3.33195682896078    2.25997090866015    3.90760129624431
C         1.87197724414306    2.42596846049428    3.98444020991402
C         1.17175352136295    1.23252250425428    4.47622072639200
C         1.62704646835160   -0.04653624114179    4.00108144261293
C         3.01159082829537   -0.21070445502874    3.93147280919332
C         3.78801235461428    0.93514510735962    4.34251771857529
C         4.19034774801208    3.21076478725301    3.51874548408378
C         1.21463814239537    3.55009957494007    3.66920984311850
C         1.04892109849123    2.73192900189069    8.09210836984924
C         0.18467133870206    3.28572880822963    7.15146441331431
C        -1.03613308745987    3.80930946611410    7.53154349872579
C        -1.41970785911500    3.78122362282033    8.86298421914604
C        -0.57074514263925    3.22936936488584    9.80599079773698
C         0.65434964894795    2.70645200827052    9.42581174822274
C         3.37566687220628    3.58764379255234    6.86004172620547
C         3.58448972041325    1.89685270288327    9.03038552880684
C         0.71157574407123   -2.74019617261881    6.93180196504271
C         0.79195110166940   -3.61800524031272    8.00814806907170
C         0.77649033202952   -4.98749907223991    7.80131398139252
C         0.68076000602228   -5.50251837133876    6.52053049337291
C         0.61007343065251   -4.63792142475385    5.43984677302926
C         0.63472420945638   -3.27345741016282    5.64782321610465
C         0.48455370471674   -0.69396347977665    8.88136284081763
C        -0.93587829341854   -0.53932221155044    6.52351811183410
C         4.57384225735717   -2.54937019854373    5.78600763846283
C         3.94216127703473   -3.77367570069081    5.97804439851883
C         4.18422458966257   -4.83263745073868    5.12262106179592
C         5.05381945728616   -4.68407716940036    4.05545848677116
C         5.68075917773776   -3.46617546288442    3.84883580590999
C         5.43897044213812   -2.40688528069335    4.70322531539969
C         4.08885861458814   -1.94140597677102    8.47833744040589
C         5.87577884010363   -0.40453564286531    7.02775850122707
H         0.08803856364928    1.35704988213261    4.53517054065992
H         0.93584942812707   -0.80732755197252    3.64565605889224
H         3.46782037401534   -1.11215734341442    3.52884980571165
H         4.87262161957608    0.81357482667748    4.27444881383229
H         5.25188677555106    3.02586787452844    3.48683696580925
H         3.87544170363354    4.19906117842000    3.23413172377809
H         1.71634130182817    4.44184404296497    3.33691723538039
H         0.13934308791168    3.60917319169364    3.73026094264348
H         0.48385182063712    3.30129804593653    6.11439049054723
H        -1.69302353840536    4.24032154368213    6.78939300362606
H        -2.37460742992764    4.18694441371700    9.16371212861512
H        -0.86282629309769    3.20398191314813   10.84648359339709
H         1.29752903521764    2.27991323335437   10.18101848668402
H         4.39979710423125    3.38156030600068    6.55299998933046
H         3.36387834893615    4.33890365874572    7.64976739861215
H         2.82542384488352    3.95345812950674    5.99762473467673
H         3.48972515502640    2.80970268826437    9.61757048761334
H         3.25369090958689    1.03818480061491    9.61138380689340
H         4.62874143498082    1.75447982291576    8.75827880269633
H         0.86530343221925   -3.24438352785775    9.01880939411924
H         0.84008088036360   -5.65587807690775    8.64873390242162
H         0.66643310471282   -6.57138512520002    6.36505565317547
H         0.54336290775231   -5.03045464069670    4.43533314017287
H         0.60255968085475   -2.60196620525865    4.80255722642655
H         0.22915902533437    0.35324578877049    9.03684020677482
H         1.38606594666379   -0.91787817342813    9.44829988783033
H        -0.34165170761257   -1.31998899878646    9.21771204376992
H        -1.65105178977969   -1.14476967071851    7.08077721056052
H        -1.12643624667061    0.51869912384280    6.70392847187175
H        -1.04232668636003   -0.74373168339133    5.46070648789495
H         3.25695277484978   -3.90456459208506    6.80058006098640
H         3.68717526427245   -5.77743466416108    5.29061142604773
H         5.24067154627336   -5.51104466235417    3.38596291656566
H         6.35786324700456   -3.34094047118271    3.01547989668005
H         5.92724364186347   -1.45900108136703    4.52820954467459
H         4.12137012266687   -1.17858556043187    9.25492005783721
H         3.15586974019287   -2.49244790351827    8.56640192810945
H         4.93217819078371   -2.62159527919476    8.59784363653017
H         5.91042754997645    0.16788625594969    7.95271615776737
H         6.61357756113489   -1.20585622317260    7.06955003424414
H         6.10382431177829    0.26713355439569    6.20394937976930

