127
CSD_code = YOJYOM | q = 0 | S = 0 | Stoichiometry = C62H58N2O4Ti | MND = 6
Ti        8.34293830180653    4.97241906948933    4.41487030868066
N         6.93493258520197    3.23720097805279    5.51959554688719
N         9.96731534088096    5.14227027434523    1.92523275794265
O         8.58376346644280    5.23393745702415    6.15300555983791
O         6.74277105624994    5.13037224335066    3.69381313927203
O         8.93971494611686    6.51402680011273    3.92433449635513
O         9.32213341467749    3.61170776219172    3.91859197756338
C         7.70952682498172    4.90319287686875    7.16129529353198
C         7.28699264532695    3.42112223259896    6.93100815348949
H         6.43338691188227    3.14097001850575    7.57236408240748
C         8.47271897074056    2.46700198668390    7.15586944842508
H         8.39488440760509    1.96520561124564    8.12001494556835
H         9.40487029547506    3.03400886311003    7.13832897703622
C         8.43007024703066    1.47159111330449    5.98631970608713
H         9.27843514273723    1.63539373684402    5.32520360756848
H         8.44152111813205    0.43473073428036    6.32189584055977
C         7.13340396313927    1.81548898651768    5.26425599647019
H         7.16895161616148    1.61843538653126    4.19189084794801
H         6.29476164639626    1.23487927302986    5.69370006005301
C         5.58934604399455    3.67403854043727    5.17643353961311
H         5.26425913040731    4.42368499426005    5.89923585206387
H         4.88159862858020    2.82993313436879    5.19363551673571
C         5.60608393201831    4.35392027581512    3.77817351566666
C         9.53499113329242    7.34534372568677    3.00209970119498
C         9.75434306416065    6.55722041076541    1.67293828161329
H        10.58438393976427    7.00251797958511    1.09567527402005
C         8.51072333324846    6.48339603225774    0.78291777019506
H         8.31433234759854    7.40889665974115    0.24420908456457
H         7.66078940912098    6.24456399775342    1.42581347264984
C         8.81863388161912    5.30258653673378   -0.14565618822788
H         7.92457826646498    4.71892280330329   -0.35843736013173
H         9.22999610096817    5.65036766659017   -1.09401433290449
C         9.86576495351227    4.48884003621966    0.63140115429107
H         9.58541938998825    3.44240034465755    0.76125334503866
H        10.83988825420158    4.50874188665586    0.10693809358381
C        11.09286346134013    4.73783118858798    2.72863090406680
H        11.37221707644563    5.56190042026635    3.38566221581885
H        11.96836573169491    4.48023555370216    2.10799058817759
C        10.66500940335438    3.49980616293361    3.60218105527600
C         8.38568930734631    5.10680477348217    8.52066080362360
C         9.32973065675243    6.12189796769058    8.61774801779619
H         9.56456038212851    6.68577278560362    7.72678166964789
C         9.95942152851158    6.39407358232275    9.81729198440408
H        10.69299815302866    7.18571421854344    9.87461063090611
C         9.64719949253882    5.65718593676069   10.94676641404149
H        10.13576945228667    5.86599022497759   11.88725144902638
C         8.70123003923209    4.65132358356949   10.86260098617893
H         8.44959013483079    4.07276845249678   11.74000118135878
C         8.07210509598036    4.37776526469588    9.65982285122570
H         7.33973082327291    3.58561572216663    9.62517927956414
C         6.49291433529608    5.84159918635117    7.18062382599832
C         6.44266312279253    6.90528317227349    6.28617168054253
H         7.28030204738325    7.05994726127284    5.61498514547849
C         5.34160408078824    7.74382131964529    6.25115952842242
H         5.31181145674792    8.55697932961250    5.54083888141268
C         4.28581409948150    7.54344994892811    7.12350694648700
H         3.42139761139071    8.18990387887893    7.09090125903792
C         4.35000962005867    6.51599257462726    8.05020316282661
H         3.54022564055545    6.36729864251298    8.75012064131167
C         5.44759875786464    5.67414497282456    8.08533549149504
H         5.48292488564648    4.88209630987970    8.81910692928871
C         5.57046645818165    3.28062844140344    2.68963277271593
C         4.42785679169917    2.51718981368217    2.47893146390403
H         3.54599740171375    2.68920548775925    3.08016812353348
C         4.41101003943439    1.54676643775044    1.49314731265915
H         3.51970689233632    0.95672055954159    1.33566952939345
C         5.53048876688381    1.33377902294221    0.70528097269207
H         5.51329533307708    0.57694362837793   -0.06538579498871
C         6.66740394493135    2.09809456817009    0.90628020583347
H         7.54173888883286    1.93537606773957    0.29129672002041
C         6.68830654348873    3.06910750014424    1.89386667590016
H         7.56916210131073    3.67692687116371    2.07577084443908
C         4.39000495646152    5.26132333151985    3.57165109595854
C         4.44254626599822    6.15079050705726    2.50342881990077
H         5.31228992103503    6.14225284217484    1.86280707344850
C         3.41102038453445    7.03835951328421    2.26496226235343
H         3.47426547098660    7.72393634574162    1.43217805426695
C         2.29896416291556    7.04545064855901    3.09016352644229
H         1.49053656908352    7.73918365643801    2.91074335919714
C         2.22829173152016    6.15215658843426    4.14339247211010
H         1.36120526051687    6.14427959850610    4.78814386043305
C         3.26415327599546    5.26397964649870    4.38354164323915
H         3.17491846006284    4.57782141435549    5.21192181215725
C         8.62904689206493    8.54621540843395    2.69267914279514
C         9.12581183810100    9.71427447925950    2.12887498682470
H        10.17970555091509    9.80831065162059    1.91272691080380
C         8.27545852873356   10.76925541221198    1.84567135830243
H         8.67306892056291   11.67382098411931    1.40829111236741
C         6.92224140789997   10.67052386708133    2.12107174693720
H         6.26253533501637   11.49672517682485    1.89877038565026
C         6.42203764331206    9.50736436858554    2.68125692747820
H         5.36590669090553    9.41570403508501    2.89264947801955
C         7.26979833333652    8.45193190013470    2.96585979096329
H         6.88610959445599    7.53483673848255    3.39416694102900
C        10.82376199278220    7.90383585016180    3.62373798601610
C        11.98087739478522    8.23433277370983    2.92883787589274
H        12.05035539152157    8.09076508476817    1.86049875995269
C        13.08063481776688    8.75125710539391    3.59448823244656
H        13.97211865877441    8.99748250870002    3.03556473656482
C        13.04373337938290    8.95359500391185    4.96194212753326
H        13.90497434627633    9.35477036847879    5.47542874838013
C        11.89113932180691    8.64230103113597    5.66337699021788
H        11.84580180294576    8.80510770066788    6.73050878653366
C        10.79383878367487    8.12945008513407    4.99859169820045
H         9.88732914611102    7.88453154702337    5.53770539720512
C        10.93732135908997    2.24292962843093    2.77946445125386
C        12.22639375082038    1.93983186443893    2.34902943008986
H        13.05231633566927    2.57607109068572    2.63530054185472
C        12.46357378214670    0.81879983732825    1.57476209988855
H        13.46934854388165    0.59610291059075    1.24851109102800
C        11.41935881193365   -0.01948197664861    1.21919054442118
H        11.60746382238246   -0.89295567850659    0.61222571428148
C        10.13716043868589    0.26781020599322    1.65246981375884
H         9.31530094012211   -0.38205660352760    1.38732037524001
C         9.90119390796666    1.38928015520293    2.42837030521568
H         8.90318571731581    1.62344611070561    2.76698144959394
C        11.43371239451641    3.47183312904343    4.92793940094248
C        11.42533624975281    4.60735951641684    5.73594416111867
H        10.93021190299372    5.50884371532370    5.39743736422094
C        12.01860668519753    4.58822844618779    6.98607910441689
H        12.00691006407045    5.47860683271808    7.59676798768489
C        12.61593637254312    3.43253652321129    7.46116056850285
H        13.07432957077423    3.41832568340601    8.43909147332946
C        12.60834978111067    2.29348378385961    6.67681649331182
H        13.05880248270496    1.38111338416593    7.04029264854272
C        12.01872910128331    2.31088858424798    5.42344041644771
H        12.01487148622322    1.40510542103132    4.83477065005106

