19
CSD_code = YOJYUR | q = 0 | S = 0 | Stoichiometry = C9H5MnO4 | MND = 8
Mn        0.22735370223088    2.26805048905538    1.37317298790728
C        -0.02218082102983    2.26802665533184   -0.41106516428671
C        -0.99552884903400    0.99837135285430    1.69483138653906
C         2.73056229845108    2.26800104307113    0.53406577924688
C         2.19287065976395    1.04986762718271    1.16358258105248
C         1.73869480858666    1.05120470933580    2.47651475742195
C         1.46425185033633    2.26796824357417    3.14676558311463
O        -0.13628018189599    2.26790769081571   -1.54594426783076
O        -1.75341895932345    0.16826853796909    1.91942028046827
O         3.49686455514264    2.26800669883533   -0.41197256731656
H         2.45629925907092    0.10930663730777    0.68945360725712
H         1.61017976277198    0.10976924389545    3.00665197174222
H         1.24146561566230    2.26795485096279    4.20878407404310
C        -0.99491497890445    3.53817232458560    1.69537103233788
C         2.19293263112625    3.48612997269428    1.16364559768150
C         1.73873395825307    3.48475287930383    2.47657395483163
O        -1.75404126837048    4.36735732486911    1.91874014068671
H         2.45640744168257    4.42670406960470    0.68956157646433
H         1.61024851547960    4.42617964875103    3.00674668863901

