97
CSD_code = YOJYEC | q = 0 | S = 0 | Stoichiometry = C40H50N2O4Ti | MND = 6
Ti        5.44025038987827   13.61085575767629    4.71699943690957
O         6.04929385468018   12.71990409246049    6.11595529917701
O         6.55212600085649   14.77709754279685    4.04298172549240
N         7.72815640875555   12.26350749801519    4.02660530381032
C         7.73479419540515   11.24108255404756    2.96050933469758
C         6.65838064317552   10.17699610328860    3.18037972737977
C         9.10521491832500   10.63277112630968    2.71553270968535
C         9.84044041629373   11.04638863350465    1.60779851328304
C        11.10704163816709   10.54871639423316    1.35802988541478
C        11.66644658932648    9.61756971523466    2.21492176288180
C        10.94275676127845    9.18454253150177    3.31190271415446
C         9.67617404378046    9.68501041686800    3.55820957085421
C         8.08774548298383   11.75138958904036    5.33815766462987
C         7.36545441706794   12.55225040952234    6.46575227740246
C         8.08737216007395   13.84660014150793    6.82192314396938
C         9.41324514636887   13.80488075106798    7.24784701687116
C        10.08533820381075   14.96677042027779    7.58125516131406
C         9.43719963127699   16.18877366000277    7.50907662284963
C         8.10940489001219   16.23465599161878    7.12004521112144
C         7.43231823936087   15.07253947698620    6.78467529032371
C         8.50446466048015   13.44544819201388    3.65678208493959
C         7.60847487410757   14.62334480197861    3.17057680204099
C         7.08088039900447   14.37959815888298    1.74154567211588
C         8.47002464135030   15.90324843282574    3.17904927637416
H         7.45079510304808   11.78076286444669    2.05287109816033
H         9.32634455578934   15.79553064877345    2.51742888970668
H         9.17684831588995   11.74628363586182    5.50369230294337
H         9.03660202016672   13.80406602540118    4.54196848270525
H         7.71807357445504   10.72880267632085    5.41830923952926
H         7.41587496234692   11.91445727610740    7.37970099513196
H         6.91199155265044    9.46770341041574    3.96388622969190
H         7.86716507206064   16.74702957351776    2.85174316695545
H         6.62252571186289   15.29294571821554    1.36456828816417
H         8.81787554219524   16.10376044839353    4.19044223589492
H        11.36525816800479    8.44843683971005    3.98063612652450
H        12.65477641219103    9.22597781101096    2.02490904756078
H        11.65624234993116   10.88667338082401    0.49120299099156
H         9.13408659503414    9.31731175324434    4.41546087144739
H         6.51744607231376    9.61703986787244    2.25774219412250
H         6.39085884903370   15.11422978824230    6.48212647394481
H         6.31755324974761   13.60187383058936    1.77898411127097
H         7.88651274546328   14.09199459094125    1.06865656986884
H         9.25642895573166   13.21096020812643    2.89132221390405
H         9.40817074322397   11.76015838301146    0.91965032725743
H         5.73383976367893   10.69152461440708    3.44043519820332
H         7.59273380467893   17.18269530186331    7.07712363196344
H         9.92641129958274   12.85559092783945    7.32399191233459
H        11.11612950015707   14.91791844597335    7.90182569507345
H         9.96348085672821   17.09669424437005    7.76552849421254
O         4.83120663918275   12.71990452995028    3.31804334889058
O         4.32837523253109   14.77709791236125    5.39101741772157
N         3.15234490086307   12.26350774716039    5.40739381965565
C         3.14570785675559   11.24108264396436    6.47348963835353
C         4.22212048924460   10.17699543101937    6.25361819260265
C         1.77528708455455   10.63277182514072    6.71846763037839
C         1.04006319483535   11.04638925674965    7.82620290524509
C        -0.22653792457543   10.54871744954499    8.07597297088654
C        -0.78594434549640    9.61757131374458    7.21908146183829
C        -0.06225619002633    9.18454437335837    6.12209932524338
C         1.20432643972884    9.68501182141399    5.87579102927447
C         2.79275523773617   11.75139023578154    4.09584143411383
C         3.51504596437322   12.55225093642289    2.96824662208830
C         2.79312783948435   13.84660087334940    2.61207716741209
C         1.46725462784812   13.80488162101940    2.18615391810227
C         0.79516150225531   14.96677136667853    1.85274622318166
C         1.44330031639217   16.18877449886773    1.92492431937997
C         2.77109537348274   16.23465665816568    2.31395479168567
C         3.44818196181047   15.07254013810319    2.64932468538498
C         2.37603659714317   13.44544829238929    5.77721730868258
C         3.27202644048215   14.62334495935080    6.26342240609790
C         3.79962062796978   14.37959876832044    7.69245376317267
C         2.41047614465317   15.90324824609179    6.25494965016361
H         3.42970819112559   11.78076265277720    7.38112768035452
H         1.55415606975195   15.79553028096978    6.91656981228479
H         1.70365230729098   11.74628402075192    3.93030734872796
H         1.84389888785995   13.80406599056055    4.89203103600544
H         3.16242733127191   10.72880346156113    4.01568936810725
H         3.46462501736750   11.91445827820850    2.05429756340574
H         3.96850832599019    9.46770279693393    5.47011204561490
H         3.01333544428173   16.74702945954681    6.58225600412958
H         4.25797529301369   15.29294641385614    8.06943092830050
H         2.06262552298549   16.10376031379146    5.24355659491298
H        -0.48475874595358    8.44843906068814    5.45336621396071
H        -1.77427411169465    9.22597981462661    7.40909529319496
H        -0.77573752139267   10.88667462970730    8.94280048350901
H         1.74641269644963    9.31731320680058    5.01853894831858
H         4.36305566533697    9.61703913768347    7.17625560417822
H         4.48964136851323   15.11423044659576    2.95187339974846
H         4.56294770404429   13.60187437455323    7.65501584829830
H         2.99398809325144   14.09199549320460    8.36534278039211
H         1.62407262515896   13.21096005407412    6.54267741498310
H         1.47233395483780   11.76015884001642    8.51435059635685
H         5.14666143625969   10.69152326076937    5.99356174741877
H         3.28776617721479   17.18269609058021    2.35687729830567
H         0.95408871716353   12.85559173693130    2.11000813651430
H        -0.23562969711691   14.91791941344531    1.53217552231542
H         0.91701885395125   17.09669521529786    1.66847330585558

