39
CSD_code = YOJZUS | q = 0 | S = 0 | Stoichiometry = C14H20MnNO3 | MND = 7
Mn        7.01390030746809    9.40247445302611    2.41717904818775
O         9.11577221809498   11.40608285453403    2.82539320560106
O         9.10031775179460    7.34820486803320    2.59537687922454
O         6.98205444447122    9.03418377511241   -0.49406200847691
N         5.46064459394727   10.99464796246918    2.48705559064652
C         5.28844497123900    8.06105249582809    2.66148202618125
C         5.90736418627463    8.32929439743111    3.89351596298969
C         6.13044094263187    9.62969955504867    4.36041489074382
C         5.21356577136776   10.76056961147042    3.92701872153870
C         5.14398397014568    6.62657902720209    2.21310311956067
C         6.99840113224788    9.20774225138854    0.64509491638492
C         8.27909950327206    8.15409026952350    2.52915558326848
C         8.27142191933867   10.64116526750577    2.65686834180661
C         5.67583237183690   12.40570435248271    2.13067225165363
C         6.16651621367025   12.51949168096668    0.68770781877343
C         6.44181204931246   13.97803974629610    0.33462887858701
C         5.18260731516915   14.82001176188282    0.51777052640136
C         4.66289323096113   14.69567665097027    1.94624827724753
C         4.39624102930107   13.23371395718887    2.29618804564140
H         4.40623467003354    8.65206237952916    2.39283128098931
H         6.39604929756181    7.50610322857392    4.41979853305575
H         6.57154824842504    9.74601265314361    5.34753703376554
H         4.15617732820569   10.52351519904134    4.12482606052300
H         5.46285938193257   11.66519760100956    4.48937470313075
H         4.98669460299364    6.57063068486653    1.13762310902485
H         6.03127933165902    6.04584315980353    2.45892434968082
H         4.28163524285029    6.16337316577727    2.70116607095051
H         4.64354863300254   10.69999708460064    1.94660189675065
H         6.45357243856626   12.80086518330791    2.79502378587264
H         5.40769139142315   12.11655880658803    0.01196910061401
H         7.07679527568305   11.92321562185109    0.56719848069224
H         6.78911306169513   14.04467784951874   -0.69715424357297
H         7.23499004014515   14.36087038428223    0.97989807479983
H         4.41359482202647   14.47990540809944   -0.17967752000557
H         5.39806365650177   15.86578305306410    0.29302797421071
H         3.74415111321470   15.27392906723118    2.06256651287960
H         5.40375149993035   15.10194393232249    2.63851237705170
H         4.02435109729608   13.16568366042647    3.32169963623371
H         3.62278494430923   12.83840693860198    1.63034070739189

