32
CSD_code = YOKBAB | q = 0 | S = 0 | Stoichiometry = C11H16MnNO3 | MND = 7
Mn        3.24780120340512    2.30890090766404    9.45338054418631
O         2.64492377865130   -0.06399838428942   11.08345962554575
O         5.24745089656441    3.40298576033854   11.30399856004497
O         1.29303991313726    4.18632834559840   10.58049780696959
N         2.15392578885035    1.92620999521346    7.71208898418993
C         3.14775510594316    2.92363776741392    7.54352569277392
C         4.46685098509138    2.48992450206106    7.71587234597940
C         4.70374113927380    1.19878391784605    8.23845971205400
C         6.12099642406998    0.79843033877124    8.58066683742910
C         6.17020941043557   -0.26909867226853    9.66919061990822
C         0.76640114888921    2.29256815864272    7.41192023242210
C        -0.17111513513761    1.34815863162351    8.15810806429643
C         0.51670935924137    2.24459630999102    5.90395713723993
C         2.88529419267289    0.86926146605994   10.45421890831885
C         4.45040623558665    2.97454227129713   10.59000404753385
C         2.04473173380382    3.44039636282651   10.12617923124961
H         2.36636114413605    1.05732857420900    7.20752408364830
H         2.88749007021867    3.83975356364813    7.01706781253147
H         5.28265150874731    3.19877038369753    7.58377872357928
H         4.15419073570306    0.35557093477637    7.80442817985579
H         6.60858075005894    0.40753766182619    7.67771878051829
H         6.68516723962532    1.67347666559010    8.91317408191293
H         5.71877427246894    0.11248233719693   10.58382535792568
H         7.19902751310998   -0.55170323751767    9.87947899619749
H         5.62428112810983   -1.15907701393877    9.36183934754215
H         0.60366013624781    3.31377373159060    7.77792675491079
H         0.04659155509501    1.37714507781119    9.22557093066602
H        -1.20486741269979    1.64429502643340    8.00507656595513
H        -0.04801991236937    0.32559870320600    7.80505922635101
H        -0.49525143159130    2.57193643206336    5.68186739097559
H         1.20866124650397    2.89519212763873    5.37100341668535
H         0.63587927615729    1.22879135297890    5.52763200060271

