30
CSD_code = YOKCIN | q = 0 | S = 0 | Stoichiometry = C13H10Cl2N4Zn | MND = 4
Zn        2.92546719356929    5.36999537681279    8.75243998641616
N         4.92676692693838    5.36999864542417    9.55740965015768
N         4.01756417536124    5.36999029760227    6.95056556869679
N         6.08599389779074    5.37000263660274    6.14104863055922
N         5.19936395021726    5.37000162434038    5.14563933244159
H         5.51818117777091    5.37000594413250    4.18905325124062
C         5.32432019827563    5.37000197918937   10.81900140959872
H         4.54040037431040    5.37000298227536   11.56324948124694
C         6.66300852793936    5.37000441800725   11.17990810180079
H         6.94264103779888    5.37000789276721   12.22114591314510
C         7.62359670305515    5.37000240402148   10.17897514323766
H         8.67496389846074    5.37000376871947   10.42426362442832
C         7.21107259232389    5.36999865809571    8.85849065422422
H         7.90763800804114    5.36999696776755    8.03613734575572
C         5.84461591820498    5.36999707612187    8.58929107511880
C         5.34313061953942    5.36999588892297    7.22834324399484
C         3.93547700470934    5.36999357268436    5.62900960365861
C         2.72685858149656    5.36999402202141    4.83387910008488
C         2.78191284835958    5.36999855919410    3.43708691838927
H         3.73122776866160    5.36999780505577    2.92148897736413
C         1.61546658262456    5.37000451045089    2.69773862080211
H         1.66623185004023    5.37000854205346    1.61922437541897
C         0.38427404582462    5.37000591429824    3.33510227053571
H        -0.52376223439198    5.37001256480440    2.75143077771838
C         0.32192294099431    5.36999912552588    4.71945344331541
H        -0.63369884544482    5.36999932952479    5.21991597812444
C         1.48264782929249    5.36999365430572    5.46787278925667
H         1.43169558652115    5.36998944993425    6.54761740569128
Cl        2.09670643455052    3.34677077233480    8.92926832203482
Cl        2.09671440716444    7.39322561700891    8.92924900554219

