113
CSD_code = YOKMUH | q = -1 | S = 0 | Stoichiometry = C39H66ClN3Si3Y(1-) | MND = 4
Y        13.69993920955743    4.68861404560697   10.36312636944826
Si       15.58594301843538    5.12090351396596   13.22507855939349
Si       14.31102649857517    7.05376567594927    7.92853145532817
Si       11.09052732281764    2.28997344592692   10.21029396573733
N        14.04006688371557    4.68731326672794   12.61933319042450
N        13.31275645807388    6.65870324290350    9.27071273657215
N        12.55215737080955    2.88200546004282    9.55761997079710
C        12.98445699998346    4.44579437175890   13.50445213124133
C        12.85559267858507    3.22828900563265   14.20417688925799
C        12.31069437565152    7.52564700515323    9.71409620719807
C        12.60957046563413    8.76273891054783   10.33310982113579
C        12.00533877979852    5.43692971191122   13.72997871890439
C        13.88058728067947    2.13453739269278   14.08220582796474
H        14.57718365690074    2.38837171648309   13.28612220591154
H        13.37721459268784    1.19733705920615   13.82398184924541
C        10.93032943637800    5.18713066963802   14.56665104031199
H        10.18475499975782    5.95928599507967   14.70568526438904
C        10.95287731787840    7.18207277373010    9.54727052599372
C        13.34512874842224    2.09103991233942    8.70022341232594
C        14.40820925145460    1.31460486209649    9.20296189249238
C        10.54701197829869    5.96472812624519    8.76207712580781
H        11.30908795020241    5.18258839439690    8.85157765857415
H         9.60556600981474    5.57125028253192    9.15340711269338
C        13.10463710648531    2.08138317710180    7.30868353114387
C        14.04979090014000    9.17879914308873   10.45014133759761
H        14.63195602558089    8.28312949474888   10.67576836606400
H        14.37992673963850    9.53269339233004    9.46981689757782
C        11.58603063453168    9.56781206590047   10.80142229360805
H        11.81876339943288   10.51120133434202   11.27328010495092
C        16.99413413515340    3.82286135130132   13.03761789562819
H        16.82214008057416    2.90870364825401   13.59709038148228
H        17.93618595075676    4.24201863088771   13.38060949365688
H        17.11963306589182    3.56257601252607   11.99147977500849
C        10.79326439651306    3.97542323108399   15.21701469323440
H         9.94499405061694    3.78693900656890   15.86059903981368
C        10.42328180378308    3.63668272231472   11.39499167023179
H        10.44791075935236    3.29285440149940   12.42273063766287
H         9.39423764394300    3.89092926466251   11.16348380270551
H        11.00846859742716    4.55650441341373   11.34364959244934
C        16.21299414981052    6.68096237686080   12.30243675581476
H        16.09823160404404    6.54815649175748   11.22790940204812
H        17.26836576683258    6.84738357902726   12.49451782308904
H        15.67882807372334    7.57901608913439   12.59948090673243
C        13.90341134450057    1.31708591664064    6.47537425543357
H        13.71809999719111    1.30570641946190    5.41203510898982
C         9.60394852497850    1.89158569410231    9.04190288408454
H         9.28741924826405    2.75330204780825    8.46178370456331
H         8.75028105161057    1.57330272463273    9.63485436005623
H         9.83365123169443    1.08393908946948    8.35281317900763
C        15.51088190973140    5.57808926049783   15.09274359794540
H        15.64141580759708    6.64402987329568   15.24920518283858
H        16.28297546047033    5.07194288806757   15.66308888151091
H        14.54938135848618    5.29950421854959   15.51124355458379
C        14.72953560204279    1.29148572658052   10.67520066297372
H        15.69044194606163    1.79361019637345   10.83056979525931
H        13.95492103976553    1.84981011657708   11.21195961797660
C        16.16483210035464    7.47044880356342    8.24662266972941
H        16.32734342665947    8.32664630244587    8.89351062200389
H        16.66229526591736    7.67632181507477    7.30232988335160
H        16.66509741518712    6.61637335790143    8.69187802957740
C        10.25920809219748    9.19455908107046   10.67812776295425
H         9.47362396500463    9.83174578537236   11.06051076857508
C         9.95542230528370    8.00711068328514   10.04184955661661
H         8.92098630375460    7.71519959661892    9.91079218051991
C        14.36449244960891    5.57195242736429    6.71286170205184
H        14.47959222667395    4.63222541388893    7.25049853065023
H        15.21660846264004    5.66310995048833    6.04662714942202
H        13.47308592029031    5.50426716502165    6.09748768862711
C        12.10847009559895    6.79583561273991   13.09176219549659
H        12.88051530572496    6.78533639628658   12.31509659576820
H        11.15447470469046    7.05928133720729   12.62498871808591
C        15.20496865295028    0.58642064478165    8.33255183166901
H        16.04205603320509    0.02692219813015    8.72516948966677
C        11.98592208813167    2.92959167557898    6.76318430966294
H        11.03851404251836    2.50576530434819    7.09478611816440
H        12.06993664306479    3.91647329936086    7.22395048356701
C        14.95472264691314    0.57124356412752    6.97614507194781
H        15.57908135581795   -0.00718582619968    6.30901036139871
C        13.58378552574236    8.55106747762157    6.96001418085128
H        12.69160265924408    8.92406685712123    7.45251219656845
H        13.31250259506665    8.28149653850030    5.94439004604182
H        14.29248234240148    9.37063678167274    6.89868358802803
C        14.65735834702913    1.93176930712842   15.38342572356093
H        15.17997625937571    2.84509138036040   15.65156229707816
H        15.38857251229869    1.13239700482079   15.26859658772109
H        13.98644079098938    1.66800554250430   16.19923240650578
C        14.36231318306233   10.25382828854424   11.48515162800658
H        13.92543668280461   11.21252204878541   11.21107254444212
H        15.44096344352826   10.38633405697665   11.55455922919000
H        13.99207363507473    9.96858930516146   12.46707912050537
C        11.95106363408740    3.08708254605908    5.24711920977591
H        12.90223347277476    3.45962232161357    4.87400914221811
H        11.17402682945780    3.79914164517335    4.97130281278470
H        11.72761833554861    2.14148407530869    4.75587735718100
C        12.46722734149352    7.86421711149850   14.12422536897458
H        11.75017610460562    7.86327592810608   14.94344790902875
H        12.45760990374418    8.84825250735718   13.66048401353875
H        13.45573443145848    7.67183290203704   14.53336838624545
C        11.76419059967561    3.01024751617170   15.03039982397552
H        11.67349879555496    2.05697760568311   15.53573901663857
C        11.22405317570326    0.64644781669770   11.20431345476792
H        11.86211929004723    0.75598951476476   12.07488468236067
H        11.63650004228402   -0.14485514078205   10.58493246887164
H        10.25001626780802    0.31527179080476   11.55286291298611
C        14.81747955405840   -0.12263145940774   11.24899661864130
H        13.89227399584855   -0.66567678657652   11.07133547917396
H        14.99473881621234   -0.08001182271241   12.32180924233516
H        15.63240371838060   -0.68148570193221   10.79462823219125
Cl       16.01552160403531    4.20958984660375    9.60780241253069
C        10.36746859600136    6.32296012391804    7.28542300083230
H         9.61904202229026    7.10686722681964    7.17476263010113
H        10.04598410057039    5.45216165740627    6.71710017396152
H        11.30670119878504    6.68484075839996    6.87618126597373

