86
CSD_code = YOKPAR | q = 0 | S = 0 | Stoichiometry = C30H48N3O4V | MND = 7
V        10.05776486020272    5.55000811322357    3.08509453666435
O        11.74968574177821    4.77061188234792    3.40407033931139
O         9.04634854296254    4.64576341845229    1.72373610501936
O        10.68699954694064    7.25298666619386    2.59624733707350
O         9.44960678276415    5.75439898014669    4.46554382324996
N        10.80503174190589    3.91025957258477    3.50017483691044
N        10.22221750086113    4.97015978646496    1.22780349647033
N         9.42580172025161    7.14536246038532    2.40603513012349
C        10.89863901069342    2.68395481758518    3.77366520131643
C        12.16874079869013    1.90252250355878    4.00830325638860
H        12.77445279289388    2.35525904790525    4.79619259718788
H        12.78365971751063    1.86483784004428    3.10626051193627
C        11.59850433506057    0.53435005920005    4.39668285221835
H        12.31235989660817   -0.28359348454030    4.30674862498337
C        11.01224410351313    0.70077182025817    5.80514843223349
H        10.75564523433452   -0.26344270693655    6.24293533549677
H        11.72470847441362    1.18321908418392    6.47352136980003
C         9.73653329972482    1.75700630084289    4.02333629085605
C         8.40028081243337    2.22534154521767    3.49047974101278
H         8.41991824257163    2.30693595845673    2.40625691350094
H         8.17664329100095    3.21490101346279    3.89518315448849
H         7.61196589006633    1.53438032400179    3.78099760224386
C        10.33738624795964    0.42285237717863    3.50833021177899
C        10.63720569539765    0.45363447698831    2.00788191896481
H         9.73120260435875    0.23838336333034    1.44498540285094
H        11.37961230320268   -0.30164022229328    1.75542348110300
H        11.00392965592068    1.42530099212265    1.68728238168686
C         9.49263074186276   -0.81698043584220    3.78773970959975
H         9.22234001983940   -0.91400317186313    4.83256200545376
H        10.04537689006221   -1.70764834790535    3.49415569651075
H         8.57577036202737   -0.77946567177589    3.20373490370234
C        10.63969717948236    4.58015571345595    0.10216902048019
C         9.93107440563679    3.71322443388548   -0.90905297725784
H         9.02782627162415    4.19708743548943   -1.28607928397960
H         9.62670410116801    2.75956731778373   -0.47075232780563
C        11.02119947213508    3.56731312156325   -1.97475703162196
H        10.65204417634013    3.23491592880901   -2.94441029624950
C        12.09754173083724    2.65224880362106   -1.37200144633956
H        11.65353501745933    1.75604338874032   -0.93752610461412
H        12.80982921384260    2.32754258217554   -2.12986696807958
C        12.76282530304373    3.54646497544602   -0.30798745147955
H        13.82726343377303    3.68530659081438   -0.49554018480857
H        12.65728569736171    3.14623759339054    0.70150950488520
C        12.01216932358904    4.89167737181234   -0.43759440665428
C        12.70933849011250    6.06622382136412    0.21548336509198
H        12.13992005046792    6.98134425346895    0.06495665052058
H        13.70542664572229    6.19944425105389   -0.20172435819608
H        12.79861425514831    5.89771494301777    1.28892566389820
C        11.70082229784267    4.95541005336352   -1.95618047380612
C        12.92382413528624    5.05729615348791   -2.86358469734347
H        13.65455788491076    4.27872611826150   -2.67677250552187
H        13.41155129357629    6.01955205865398   -2.72295514800907
H        12.61035880251517    4.98634330658942   -3.90375480399156
C        10.75983274642430    6.10605746184984   -2.31988471930970
H        10.29112935509008    5.91754418630733   -3.28416112685628
H        11.32093316251155    7.03527489829825   -2.39381284618353
H         9.97869294348370    6.24815943419162   -1.57783148928446
C         8.62398650515372    8.03255777030462    2.00911983054818
C         8.96961681430759    9.44811944208653    1.61534398877086
H         9.57370169397801    9.47233408711382    0.70597841938525
H         9.54101320619008    9.94752541327178    2.40079288120643
C         7.57092520618420   10.04028835374507    1.41480577218251
H         7.56009549912015   10.96205338012457    0.83445090417184
C         6.95816579215811   10.17633224796438    2.81562901733037
H         7.64764982510172   10.66951252975458    3.49990852015571
H         6.04358424045673   10.76783367618924    2.79067466571960
C         6.68688641200756    8.71493053186767    3.22045034905145
H         5.63396299980221    8.53873647951717    3.43716133286976
H         7.26409590111086    8.40587902064590    4.09267183590162
C         7.12269493808776    7.89980313894645    1.97862173134256
C         6.58932544539430    6.48432849004802    1.95711297839113
H         6.90759740389742    5.96315519965637    1.05720818332707
H         5.50238311785947    6.48773460973304    1.99925137390344
H         6.97986140656934    5.93688498532745    2.81751168622191
C         6.78291514048395    8.85711862766680    0.80662511190696
C         7.34063419502882    8.36996593746762   -0.53251384394308
H         6.67579971966598    7.62336774648183   -0.96137832208915
H         8.32205155086762    7.91589163076376   -0.42411255160757
H         7.41549994123089    9.19861116626650   -1.23432870891313
C         5.29575829689324    9.14074609125651    0.61458393608938
H         4.81034933137138    9.46965868340959    1.52586321341140
H         4.78899722622693    8.24342175803576    0.26684586410586
H         5.16757696723667    9.91571971122263   -0.13892356342372
C         9.76567708941905    1.57154364213123    5.56010904436732
H         9.82728776030861    2.54161868085967    6.05421413585015
H         8.85270212667243    1.08252240825349    5.89759545629647

