39
CSD_code = YOKQAT | q = 0 | S = 0 | Stoichiometry = C10H22MoN2S4 | MND = 6
Mo        8.43840826519683    2.76337297213247    2.90452256445593
S         8.11388134558742    2.95749043789120    0.57253203529868
S         7.45406151008412    2.97245334797506    5.04133385270505
S         9.51731152190672    0.72802527601568    2.89233172311306
S        10.41390235217277    3.85532559105136    3.36554733253628
N         6.63656053609925    1.21446724507972    2.80419745093885
N         7.84359827868477    5.05094774088211    2.64739950237369
C         7.01557786982151    0.18799420085647    1.82314271928064
H         7.06262808475537    0.68282955069432    0.85008742392789
H         6.23876240045144   -0.59222044717102    1.78372216028544
C         5.38859885720996    1.82214640471287    2.35330531356543
H         5.09139442276077    2.62049986652301    3.03064670333144
H         5.53611584474581    2.23854865048184    1.35723409658029
H         4.58266333377594    1.07740087604671    2.30761874939868
C         7.90241702595847    4.72931736365585    0.19987408157784
H         8.50495109748887    4.94162820127519   -0.68453355751952
H         6.85298087565921    4.90428543362003   -0.04448278578408
C         8.38181435559371    5.55360696418284    1.38069139716491
H         9.47309908127240    5.47569864681892    1.42078100016901
H         8.10372101779313    6.61160498572352    1.23903472003000
C         8.36492857869390   -0.45091742260749    2.10568159269978
H         8.82751302849801   -0.78646497892360    1.17876941821757
H         8.29234858546066   -1.30182020303675    2.78557919575725
C         6.45049807186824    0.60164000255585    4.12192750204898
H         7.36704768415349    0.05994395247009    4.37685344836546
H         5.60905620678129   -0.11122309749194    4.09762339301509
C         6.40237066335511    5.27387857260992    2.70337102823380
H         5.90360302315359    4.71932317832838    1.91084037134888
H         6.02724426648055    4.93029431002241    3.66702060124932
H         6.16514580504543    6.34062326936749    2.59329957011233
C         6.21436704055219    1.64473950377768    5.19898350639008
H         6.34291381214875    1.20691871111597    6.19002627778314
H         5.22201651651559    2.09635291029941    5.14479480764051
C         8.45253314775099    5.77406145106965    3.77267128515790
H         7.96043997804579    5.41774678644061    4.68091598028507
H         8.25861770903946    6.85346880451011    3.66741519564854
C         9.94711723650311    5.53630807294975    3.90794822999646
H        10.25545985917496    5.63867290044769    4.94735837590939
H        10.53843070975577    6.22452996764701    3.30093373670888

