51
CSD_code = YOKROI | q = 0 | S = 0 | Stoichiometry = C28H17CoI4O | MND = 8
I         4.06997877903001    1.16722820451241   16.20524616321287
I         8.94158053943577    4.38744205237867   14.55005918848209
I         8.02021989917611    8.08601159190052   15.46759345672734
I         4.95003353024560    8.56436968835246   11.82226212076365
Co        6.85692548363310    5.89806434045285   14.78262095044885
O         7.78627912744460    6.64657553865363   12.14157327220485
C         2.00405736155727    1.48285164092834   14.03155599243616
H         1.44937776139099    0.80615589837682   14.66364097908418
C         5.77551036284425    5.73203162192541   16.56805282152401
H         6.02838067080308    6.08568419092527   17.55559045408835
C         5.42880435357745    4.37710048826251   14.74262314497366
C         4.68581253119507    3.87743159934266   10.33524510430203
C         4.14031411807564    4.25681120944849   11.58779159724556
C         4.72878972118566    5.59543161387986   14.50557162596447
C         4.63770033296641    2.54876546723911    9.86296777015078
H         4.16291089089478    1.79281873266194   10.47110913072848
C         5.32093171825911    4.86487013885445    9.53989282702411
C         4.24383470219660    5.55383123860668   12.05146631451736
C         3.41748575517953    3.25704916581205   12.41288091714765
C         3.26734468399415    1.87584630146964   14.36937313342172
C         3.72882099474389    5.88747241642389   13.42538770878082
H         2.83564217070280    5.28580626794627   13.63255499905285
H         3.43824979944891    6.93819099384528   13.48357710968994
C         4.84755538417603    6.52274277369218   11.22462125872920
C         1.46372531204251    3.39515674730954   10.88819511194202
H         1.98867884659865    4.10720676703722   10.26910148980179
C         0.09325872147314    1.56665961243122   12.48438214285601
H        -0.43126932381480    0.86061158894369   13.11116397325256
C         6.01169588503756    4.45673216224909   16.05525698867439
H         6.48707639817656    3.63654802337989   16.57119526022994
C         5.42184651961163    3.14972519026202   13.88016167977410
H         5.94622316772012    2.34293147466372   14.39660118487867
H         5.95609221340257    3.33927248723186   12.94329697052517
C         5.18849666273213    2.22158952845628    8.65566597869692
H         5.14989274199766    1.20216254076361    8.30273256830409
C        -0.49056010409003    2.07129176957356   11.35703021250648
H        -1.48737505868039    1.76649621686587   11.07654839096613
C         1.39566959573240    1.96135625174950   12.85464359192186
C         5.87779568978857    4.49551643587429    8.29786267317788
H         6.35980311798992    5.25506015619012    7.70050811656843
C         5.81187293499523    3.20085171100388    7.86641465215780
H         6.24230687453713    2.92112328194264    6.91689157415092
C         7.37464355444190    6.36403566751850   13.16532062355610
C         5.36932305346451    6.19315417864484   10.00594502745304
H         5.82948530583116    6.94469259492818    9.38276194788125
C         0.19898800060160    2.99584980856376   10.55737197286572
H        -0.27873971384372    3.39286781619153    9.67449855006740
C         4.01014306361612    2.74661154045510   13.54950927022072
C         2.10131535316282    2.88091790881028   12.03728086147332
C         5.01459611413743    6.45314553838858   15.59646987396190
H         4.59567440118393    7.43904982467837   15.73753127142941

