82
CSD_code = YOKTIE | q = 0 | S = 0 | Stoichiometry = C29H34F6N7O2ReS3 | MND = 6
Re        5.28496962566321    3.02026971211709    5.47213512544503
S         5.37153380214418    5.43944630035140    5.04802855343427
S         4.68772527027642    0.74224293498024    6.08958049391528
S         6.66742831955007    3.35036683945257    7.54922281985606
O         3.78558580512931    3.49832489507643    6.67848160584262
N         3.69527624829421    2.72548655455470    4.13809528859084
O         6.55370335151467    2.63275929783245    4.49539559033686
F        -1.60129271006095    5.82311793000955   10.96721355062565
N         4.33590293178979    2.97393628900183    8.83122581334609
N         3.82764025023139    4.74529510731826    2.95054524033445
N         5.56294847633375    6.12393665122332    2.50066939100442
N         3.03742473029137    1.54669123951610    4.11773883221087
N         6.05848679181755    1.62745732149722    9.46348371802167
F        -1.40913876052490    7.23529297611299    9.35697741517389
C         5.17035522896068    0.97877746954787   10.40609836875971
H         4.43256740395376    1.71495705571480   10.73143497430785
H         5.76358201947221    0.65869808667268   11.26538204214703
C         6.73086983944043    6.89159502254496    2.87002189697217
H         7.39387477809715    6.93404268079266    2.00300854923090
H         7.24790806315430    6.37297174856206    3.68137445296241
C         3.17891424481715    3.69067480109996    3.39002718550302
C         6.35785299297397    8.30038670029341    3.32284545293846
H         7.25620631957379    8.85824370945429    3.57040944126626
H         5.72578548444771    8.24739274375437    4.20489774558499
H         5.82164621698473    8.82889529878999    2.53782306341124
F        -2.28099103910967    3.34048569063020    0.03108449905992
N         2.70703209870202   -0.57890595019277    4.86284712192405
F        -2.77812364809544    2.11124258714706    1.72416780158604
F        -2.41286467586860    5.36320312676677    9.03011491360949
C         5.58876954716854    2.56247027163465    8.64498199127588
C         4.45981571697781   -0.21269646938435    9.77000471950202
H         3.78324438787053   -0.66978787215771   10.48657091208118
H         5.17890322419673   -0.95859309879341    9.44005424323798
H         3.88996864513183    0.11703053903921    8.90540536140876
F        -2.97097942688427    4.24781533156841    1.85389856763153
C         7.42269092927446    1.15733565473843    9.37914584831099
H         7.74728276286962    1.22089354174162    8.33675396698453
H         7.43843802261788    0.11123486234197    9.69175539680807
C         4.89621092855423    5.36985896236305    3.37705770185378
C         3.39225252458220    0.58332501081364    4.89478333014350
C         3.14800691958932   -1.76574380735395    5.54748590672737
H         2.28052446518328   -2.28109686923762    5.96396069263489
H         3.82604083954899   -1.49936135198739    6.35429520085942
H         3.66465621492307   -2.44549342105937    4.86176068087972
C         3.56665824404778    3.52550844614456    7.92770595137276
C         1.46767800729515    4.75810061889467    7.47456795348846
H         1.75389064266116    4.78610142335659    6.43317352258801
C         0.77757410954413    4.69660388699255   10.16681016333269
H         0.50047914476146    4.68153767868387   11.20956164207266
C        -0.77695826719724    3.36561090337895    1.87119472368364
C         2.30963565185470    4.14476970014102    8.40012299993596
C         1.80211560997966    3.55420629440292    2.85980637874616
C         8.35625736511670    1.98970535551359   10.25290149992559
H         9.36777699567182    1.60039473223755   10.18459500529996
H         8.03910444576634    1.96199376366996   11.29304898014462
H         8.35574951681837    3.02146226174765    9.91256811639744
C        -0.52186248241293    3.04033179363488    3.19849362204456
H        -1.32962610871764    2.71514367386475    3.83652447034830
C         5.16670319883306    6.10471619858997    1.10673383724599
H         5.52164679290004    7.02649976394334    0.64202851830152
H         4.07487167152597    6.08385762961072    1.06926951490610
C         0.76572447872307    3.13246777738748    3.68818985030837
H         0.96490889665567    2.88040262946189    4.71822565599634
C        -2.18754631725541    3.26564180556556    1.36573489368588
C        -0.05963660339859    5.29667834450171    9.23456088073273
C         0.28288099207839    5.33282307232242    7.88758897551031
H        -0.37611791892756    5.80824385771622    7.17689318648488
C         1.96083012050309    4.12136738516674    9.74709860514628
H         2.62656779813917    3.64982380870946   10.45147276940836
C         0.24737479150832    3.79738461671441    1.03989239632189
H         0.03806251058369    4.05095931092013    0.01208483661725
C         1.53259009085462    3.89362926150958    1.53854521819731
H         2.34159013700372    4.22156664329528    0.90616675573764
C        -1.35950759088426    5.92364737294799    9.65363520909724
C         5.73391827170695    4.88755175862572    0.38135738454622
H         5.41346045955115    4.88667257047430   -0.65693098738111
H         5.38543771023091    3.97640658787710    0.86046555111115
H         6.82071338982005    4.89634960773497    0.41172937582919
C         1.71006083704157   -0.79579604076936    3.84080173301688
H         0.84852539946982   -1.29910567986133    4.28268967355950
H         2.10733898936081   -1.42047305929252    3.03509303121848
H         1.40589385729466    0.16263813926070    3.43065263729869

