76
CSD_code = YOKVOM | q = 0 | S = 0 | Stoichiometry = C27H34F2N7O2ReS3 | MND = 6
Re        8.06107043405801    4.93996747374417   20.00374132928229
S        10.30086753569642    5.26122820816711   18.87708298377712
S         8.58237895065919    2.65786654661889   20.65877484150189
S         7.67573789678798    7.36603958079398   19.90185312840653
O         9.08925680246147    5.40074095665349   21.64364125002240
N         6.54427380162480    4.65183451086424   21.42001343694708
O         7.25560844230860    4.57670967566608   18.61087551822499
N         6.45212574352243    3.48172362172382   22.08529300800538
N         5.17027362186013    7.78651321622287   19.13122377111791
N         5.37933566903928    6.63952555159709   21.07895964683738
C         5.94349312222405    7.19468232845590   20.04029178530747
C         5.72806420468658    8.41429680638689   17.95139275995957
H         6.63627013783952    8.94937776679282   18.23367808548538
H         4.99872287490060    9.13725965655559   17.57933599727479
C        10.30298814279632    5.42593313043224   22.00376696889758
C         5.74696132510025    5.63005608313753   21.83653430886837
N         7.16463107935633    1.36471326320453   22.53232206990854
C         7.25999764513198    2.51615720904809   21.82829270024414
C         3.73059033442422    7.62893577982421   19.20950786246642
H         3.51087001341741    6.65398375870951   19.65058562355109
H         3.32886986928547    7.65276364846618   18.19472191410882
C         6.03858090541717    1.17002935533542   23.41544092422845
H         5.23986021678167    0.60942301921666   22.91947390800526
H         6.36890658819204    0.61077250759108   24.29197393919516
H         5.65328546585075    2.13907388973859   23.71916377003008
C         7.84984779516158    0.16021958649798   22.14225994323661
H         7.19225526427336   -0.49954898342532   21.56537841675820
H         8.71767715945603    0.40789702132990   21.53604435632575
H         8.17865850296313   -0.36918816941711   23.03864630434494
N        11.29067357996747    4.87531855828387   21.34498094045588
C        11.25096584576521    4.46516716186807   20.07849642453046
N        12.11185171131711    3.52158920547903   19.71059965968926
C         5.09703633344542    5.56983088031911   23.16041416232999
C        10.62848386322504    6.04272694591241   23.30873154585576
C         5.79529917361895    5.11385395959723   24.27483597407862
H         6.81280238219904    4.76819093730823   24.16992955260925
C        12.18622341390294    3.04944907454699   18.34671173969374
H        11.18995358580545    3.11988591171725   17.90114448393065
H        12.49093731591775    2.00107968560330   18.36919031269136
C         3.10578558234808    8.73398130507512   20.05634512481302
H         2.02850034911961    8.60138056387124   20.10825198454032
H         3.51628875135584    8.70071972983034   21.06170221810172
H         3.31727742056299    9.71035058055638   19.62691801700902
C         9.60547941711187    6.62690378146511   24.05079827950372
H         8.59269477078873    6.64188678616122   23.67766032673947
C         6.05290173990583    7.37213426508473   16.88276547981242
H         6.54231288083563    7.84474170235641   16.03636215312145
H         6.72003697031005    6.61421351369506   17.29361916303848
H         5.14784927828448    6.87843325257222   16.53635823617873
C         3.79491394070792    6.03667387810670   23.31286029460892
H         3.26342577378706    6.39498417111970   22.44539073835277
C        11.93395757245644    6.04260750405522   23.78975655530374
H        12.72559167024929    5.59571014634287   23.21239278647111
C        12.93355193429449    2.86539991198564   20.70660070363527
H        13.17680336658995    3.60036489513804   21.47650308041321
H        13.85415362267784    2.53350326329617   20.22158511372920
C        12.19012983181753    6.62786252525192   25.01331137699884
C         9.90812952340440    7.19778370181618   25.27135238662265
C        13.17010500229521    3.87399350595862   17.52205035142308
H        13.22122409015269    3.48199171370658   16.51050538080537
H        12.83758330187429    4.90740383174355   17.47971670713080
H        14.16455442563973    3.84187944323102   17.96180406499881
C         5.19365141296703    5.11595400699615   25.51926752986968
H         5.74426863319517    4.76824340006842   26.38091052498702
C         3.19524423353159    6.02808201786186   24.55800071627550
H         2.18163110858726    6.38452630692320   24.66857042064289
F        13.44937030453047    6.62976221888268   25.48648196655289
F         8.92346039777483    7.75583209670303   25.99664718622762
C        12.20294492961602    1.68400349793232   21.33882694350391
H        12.82669630007550    1.22310488047603   22.09959492266120
H        11.27890267923097    2.02559033150431   21.79760536583235
H        11.95465404526254    0.93803243472354   20.58761049221707
C         3.89195340928899    5.56701496247558   25.66314016224535
H         3.42331336718247    5.56320217607713   26.63614188448443
C        11.19539395746280    7.21211249089247   25.77988060260063
H        11.41547725443451    7.66275588544398   26.73370541037200

