53
CSD_code = YOKWON | q = 0 | S = 0 | Stoichiometry = C21H24Br2N4OPd | MND = 4
Br       10.03206229958972    8.10070621586712    7.58331825247840
Br       10.76091242802845   10.43058570142712    5.21749036552418
C         6.16034292544410    8.42297607016552    5.12454684943477
C         5.11402810957331    7.59512769383297    4.73475180822440
H         4.37197868151044    7.94590671746019    4.03639280023091
C         5.06271859288538    6.31320075833866    5.25169315419544
H         4.26579587028557    5.64512835170851    4.96486243073013
C         6.05109245337810    5.90260091352950    6.13659200470566
H         6.04359623489872    4.91235182338762    6.56053092900057
C         7.06017900177634    6.78669515698221    6.47208947539735
H         7.84676402790250    6.50858522948420    7.16381393649020
N         7.11543435925129    8.02179388493609    5.98007926028354
C         7.46398836412180   10.41151978702767    4.95234839597470
C         5.38821339646935   10.57985755021417    4.10755607969935
H         4.40982897195663   10.26721662452419    3.80990081935603
C         5.97481053306843   11.79519021655573    4.04708002760136
H         5.58995239118626   12.73484025917493    3.71035052442040
C         8.11350398845819   12.79177729849343    4.85967297895977
H         9.05583154295731   12.39272441740126    5.23278736036712
C         8.41990002886452   13.64846815465836    3.62435393636355
H         8.82727000349392   13.00415904854190    2.84287108114931
H         7.50753905973617   14.12750006169287    3.26754988950334
C         9.42751065829314   14.69359264722294    4.02284189852279
C        10.76040296498865   14.34139633100126    4.20109617243889
H        11.08044259269520   13.32654132864504    4.01264799927585
C        11.67916809530347   15.28472031350711    4.62657005958537
H        12.71106218127119   14.99927005193810    4.76382338984464
C        11.27534130840629   16.58465578371872    4.88149402147656
H        11.99253366541354   17.31964956699312    5.21589272040205
C         9.94900253064163   16.93982762716849    4.70634258872833
H         9.62864420156836   17.95249934990907    4.90410281291739
C         9.02897068853245   15.99772244445791    4.27953849216480
H         7.99190580232553   16.27289417586442    4.15273251465676
C         7.39140786588376   13.66279538579554    5.91177362469928
C         8.73076720611230   12.59290865300387    7.72484230905840
H         8.64201223034774   11.62184162798348    7.19276589202249
H         8.45728196313839   12.39675628616261    8.76544063569228
C        10.17445960399855   13.08833423292819    7.67278855802047
H        10.43160707651183   13.45641770258911    6.68333718601302
H        10.84346017372859   12.26710980883821    7.91444320993862
H        10.33238137526611   13.88853011060864    8.39044094549755
C         7.16931979292066   14.49127068234417    8.13002026323227
H         6.12313070668043   14.62743324457234    7.84191149074112
H         7.20883158191517   14.06721456870738    9.13452475107470
C         7.87715173252733   15.84169392640946    8.08846730667323
H         7.83089552406169   16.24879135956708    7.08209356296259
H         8.92065608478042   15.74571320043520    8.37508668033025
H         7.38786299299322   16.53272281743195    8.76951207426761
N         6.30998366545804    9.72894808370844    4.68097054994924
N         7.23916734137440   11.67591729569741    4.56991377291596
N         7.76164980120809   13.53867959943067    7.19927776086789
O         6.48793154315886   14.39841420152664    5.55439654845212
Pd        8.79611378367347    9.34632565642293    5.98087784750763

