65
CSD_code = YOKXAX | q = 0 | S = 0 | Stoichiometry = C30H28N2O4Ti | MND = 6
Ti       -0.06041307277413    3.93819707291245    2.53179122393018
O         0.88842348568803    5.02664623291395    3.59064182077167
O        -0.66521410518436    2.89478411776484    1.21777776535216
O        -1.54767562171378    4.88812677575990    2.66452435495738
O        -0.24686679744669    2.69640909731317    3.78958557065876
N         0.52857744625467    5.37579635798555    0.89298098627326
N         1.93725584309740    3.06874747663816    1.96210031342830
C         0.72053591002830    6.75159798807650    1.39486165328973
C         1.75427047062446    6.91664563475968    2.47032970043596
C         1.70979509204816    6.04561483561174    3.58110653921991
C         2.60385179249103    6.27439421810824    4.64121426236089
C         3.51247431559021    7.31183053025327    4.58782805984692
C         3.56580176309682    8.14440728013204    3.48148265577964
C         2.68008544556801    7.94507879518908    2.43487488370750
C         1.91557487125048    1.81466407715918    1.18564172772974
C         1.02388491918185    1.80487587610572   -0.02165366916398
C        -0.29614494637521    2.28856973192331    0.11837597378126
C        -1.17730552001848    2.14105417312043   -0.96753375560152
C        -0.75311305557860    1.56549269664299   -2.14806770021477
C         0.55380937770067    1.12498468359315   -2.28676260844564
C         1.42838434003198    1.23699877158614   -1.21830631637439
C         1.75131910018486    4.87050812089869    0.25324125702723
C         2.65869450063526    4.12057358955432    1.23754344295683
C        -0.55837256920987    5.45535378368438   -0.09665382664169
C        -1.93268192180203    5.75682034302604    0.46062397464103
C        -2.35063962461747    5.40064902139477    1.76395226883925
C        -3.68457731282748    5.66999402085647    2.12462044666851
C        -4.57060452992345    6.25555212817610    1.24891707382958
C        -4.15283546442505    6.60715323473957   -0.02536415080727
C        -2.84696241203230    6.35415109925206   -0.39990777236936
C         2.62951698673255    2.76324544398068    3.22989898525360
C         1.92535300518257    1.72330438404235    4.06800154046901
C         0.53342558588555    1.79384363978335    4.32387588701702
C        -0.02583596281456    0.82512583339799    5.17893705236749
C         0.74120094695300   -0.16510178488282    5.75106532268638
C         2.10059232850979   -0.23242397587737    5.48755117518036
C         2.67304692528768    0.70927099085629    4.65232465153727
H        -0.24821171663853    7.07807941328863    1.79783214728255
H         0.97477765626976    7.41236847229530    0.54701711651408
H         2.55282484638263    5.62318900653344    5.50296604946191
H         4.18894256370531    7.47088186511978    5.41479381079829
H         4.28245651702768    8.94970841896033    3.43817095216583
H         2.70297406889306    8.60785787013502    1.58003988370549
H         1.55489781339136    1.03114850593864    1.86821932862869
H         2.94567968059056    1.55146322817157    0.88747794731141
H        -2.19410150391017    2.48910771535914   -0.84772819777166
H        -1.44612275095125    1.46288248304559   -2.97014416131406
H         0.88586491538639    0.68409256257533   -3.21376467208698
H         2.44084848644079    0.86766446334252   -1.31272349094443
H         2.32701815616616    5.69944299236553   -0.19019474423040
H         1.47416581889405    4.18301200200644   -0.55312630412822
H         3.50355291434177    3.69055513093813    0.67196820066704
H         3.06910131260568    4.83466657520668    1.95836673329630
H        -0.61671391455457    4.50597068682588   -0.64019249368262
H        -0.30889629736176    6.23509996733646   -0.83998302408191
H        -3.98759106763666    5.39202282936276    3.12437267224009
H        -5.58845410875595    6.44311500866211    1.55788488752282
H        -4.83591518432027    7.07193384154612   -0.71943253355514
H        -2.52147576694757    6.62224427674026   -1.39658272205974
H         2.71273439156398    3.68484708067098    3.81448667894876
H         3.65118364745102    2.40733114801993    3.00842290657428
H        -1.08728859053104    0.89060310364442    5.37166717239671
H         0.28004136114727   -0.89113645639989    6.40456444057263
H         2.70829704560182   -1.00710118951550    5.92889746952368
H         3.73557817046895    0.66291270139200    4.45190317586667

