66
CSD_code = YOLCEJ | q = 0 | S = 0 | Stoichiometry = C29H31NNiP2S2 | MND = 4
Ni        2.59334575775628    1.13189742687227    7.12654024193173
P         2.65283912724224    3.26602239593024    6.75776008622874
P         2.62395207947905    1.99291570530279    9.11946867045031
S         2.05822905432844    0.48771712591418    5.12339235382358
S         3.07463958705226   -0.90019574508415    7.70827043515024
N         2.72261574378600    3.57985901938076    8.44893981370151
C         1.59430397177475    4.54900969282556    6.04839589171189
C         1.83739276528857    5.01232044969667    4.75876972692870
H         2.70685558205959    4.66120917927154    4.22112790923565
C         0.96241630877394    5.90707708426807    4.17069303241341
H         1.15743947256357    6.27238491579275    3.17312724099460
C        -0.16622628378896    6.32866967340719    4.85510233563933
H        -0.84661441711573    7.02921538465008    4.39404342738056
C        -0.43485524462188    5.83505860877597    6.12234570620413
H        -1.32853373021203    6.14383279084785    6.64491518992853
C         0.43387657105720    4.93726201436984    6.71284615984811
H         0.21738418514783    4.52531024932344    7.68981988115861
C         4.35007515974805    3.64625997599029    6.21059875353607
C         5.19146300288442    2.53713722916520    6.17214766100806
H         4.76504149375414    1.54252479174491    6.37618303559156
C         6.53276101301599    2.68814204838558    5.87537349270514
H         7.18384370508292    1.82714081532950    5.84518576721658
C         7.03607819499816    3.95288071750785    5.61261854427364
H         8.08258252029538    4.07835918630163    5.37646614278802
C         6.20169150621777    5.05966321696127    5.64897696958899
H         6.60110993745283    6.04275045285714    5.44514910294784
C         4.85875207156195    4.91337560369399    5.95051741497768
H         4.20902378776064    5.77736824845115    5.98437150199873
C         3.76625179918371    1.89599440420143   10.51776675282169
C         3.44079213508548    1.27969509341702   11.72101746035181
H         2.44103150208801    0.90719638557382   11.88629971289724
C         4.40885578237775    1.12241169750767   12.69783272684282
H         4.15058026802530    0.65385048525688   13.63626275270973
C         5.70652772438740    1.54992992877040   12.47244631520590
H         6.45674980010435    1.42711870335948   13.23945981916647
C         6.05019910322435    2.10516941970643   11.24902164702244
H         7.07082652307644    2.40173148620278   11.05577412870367
C         5.08890542334322    2.26098118085451   10.27026646984493
H         5.35355062622249    2.65214604125578    9.29658988642606
C         0.90473652630104    1.84476976923769    9.73101819727185
C         0.04906072059893    1.28476563021194    8.78188189356075
H         0.46555096962607    0.95251194545308    7.81563719022690
C        -1.29827757539922    1.13143337891445    9.04595745213343
H        -1.95116785244206    0.69874006968299    8.30264610462681
C        -1.80370832530524    1.52836950002364   10.27373405569376
H        -2.85416550515334    1.40496624828981   10.49250732685978
C        -0.96019245182728    2.07880617887269   11.22532195648802
H        -1.35514923754902    2.38441041675435   12.18362698052685
C         0.38857723004757    2.24171998512850   10.95982597728328
H         1.02819612677108    2.67834462632576   11.71242891117089
C         2.83831683907554    4.91270678117940    9.03548228292844
H         2.47640432439697    5.60373436983101    8.26060157312784
C         1.96399616120568    5.05562180080657   10.27425359453417
H         0.93446122273850    4.78000850745558   10.05912833738291
H         1.98433022160600    6.08549301814914   10.62301973167287
H         2.34610197989449    4.41444353690052   11.06586399460105
C         4.27865359885244    5.30117895309407    9.37527713605429
H         4.63170154761564    4.74439345310162   10.23922494025981
H         4.31902693712955    6.36316058112545    9.60760541307975
H         4.93930046143066    5.10637420368965    8.53454748476570
C         2.64227044072159   -1.24467153817635    5.04342305769730
H         2.11137755999009   -1.71841704757924    4.21469280588303
H         3.71304673544454   -1.22869121570064    4.83185530849491
C         2.36240268297945   -1.91531550535673    6.36223250732275
H         2.82353042751307   -2.90289494109732    6.43482962467173
H         1.28836462327647   -1.99865579035033    6.53869200033368

