51
CSD_code = YOLCAE | q = 1 | S = 0 | Stoichiometry = C25H21NO2PPd(1+) | MND = 4
Pd        1.37573145335860    5.00910914104779    8.65213491791897
P        -0.02168563811591    3.76022462775376    9.85760775839021
N         0.98031387096267    3.94193996984383    7.07535229348452
O         2.79599656387481    5.90896524277285    7.46548836020974
O         2.09143891425840    6.39700692251724   10.15784347297253
H         1.54851280965292    7.18250823298440   10.31341644895601
H         2.90563751528633    6.70041571561490    9.71932526092521
C         2.94976763554500    5.14059100094304    6.43095354079880
C         3.96737314604375    5.37519727713705    5.48485127980971
H         4.61575053879164    6.22361612422513    5.63841618453544
C         4.14722344856585    4.51830715286455    4.42889615673366
H         4.95038121452821    4.69523061580793    3.73037203622116
C         3.32099880838704    3.40366833591803    4.25744864800811
H         3.50202987688579    2.72145560531773    3.44277429970598
C         2.28228614590912    3.17421106433190    5.12551696080290
H         1.66446831836749    2.29675980658344    5.00596727657185
C         2.06355121324850    4.04320122651734    6.20547260111483
C        -0.12828009988710    3.37776508639627    6.70988075898435
H        -0.20226017642208    3.06207709573545    5.67068975634894
C        -1.31946338523753    3.09994393790067    7.47896424993989
C        -2.43336518573388    2.63591280535898    6.76318562335571
H        -2.35479546939022    2.51023330933383    5.69351124761604
C        -3.62763866342424    2.34837290501631    7.39278832784340
H        -4.46895958190745    2.00173876035020    6.81357608329774
C        -3.74610062738028    2.50585272748344    8.76545951243964
H        -4.67845895273136    2.28656772417855    9.26150264514868
C        -2.65725625168098    2.94542657949165    9.49910142998126
H        -2.74306976335479    3.07133720771474   10.56958420147490
C        -1.45130349400689    3.24206907174992    8.87598128983965
C         0.87341996789944    2.21622683780644   10.19363756608636
C         0.23645339198139    1.06230073810408   10.64132175890844
H        -0.83232026385561    1.06548267965970   10.80483388372381
C         0.97663264005971   -0.08537677078551   10.86456560606191
H         0.48630658787612   -0.98062073284415   11.21482857143111
C         2.34372963388122   -0.08768478788751   10.63512247480377
H         2.91584512630595   -0.98564280439779   10.80919357818506
C         2.97973742186720    1.05720036521578   10.17859236794721
H         4.04347480354988    1.04737836111340    9.99720145788594
C         2.24918187529350    2.21056140520610    9.95579003054990
H         2.74863018495183    3.12508895634795    9.60149196899171
C        -0.69322171979574    4.41857810364320   11.40134761038199
C        -0.61877060658736    3.77705435784755   12.63129897837921
H        -0.14791270895907    2.80794132395030   12.71075313084147
C        -1.15184011236193    4.39450756326121   13.75084154221217
H        -1.10079335240777    3.90043372789309   14.70881670807756
C        -1.74692610270749    5.64128998084218   13.64576578077534
H        -2.16060749225100    6.11445661333795   14.52263726001707
C        -1.80648529837207    6.28980789502229   12.41986433881631
H        -2.26468286172005    7.26418525952051   12.34545168191033
C        -1.27307818465736    5.68385435789233   11.29948612678616
H        -1.30119711438449    6.17237129635963   10.32769495379854

