45
CSD_code = YOLCOR | q = 0 | S = 0 | Stoichiometry = C24H16N2S2Zn | MND = 4
Zn        1.41092869103349    7.71048173365141    9.02424454322055
S         2.54349520189535    9.16639251650833    7.61074778921439
S         2.43435796235106    8.38492739071030   10.99583294128762
N        -0.67491116244439    7.55745926183258    9.20322652378203
N         1.13691532516543    5.65186859148888    8.72197511442602
C         3.47544610776837    9.93388060694538    8.88152618004085
C         4.33406467611058   10.95048843547152    8.45710535631828
C         5.12797219901907   11.64725222329593    9.33949638971627
C         5.08155250160200   11.33811562670565   10.69340709796294
C         4.24287725835261   10.33938781011827   11.13255883012470
C         3.42903923547850    9.61915975719378   10.25445922115096
C        -1.50353331335703    8.57454987352195    9.51327076373035
C        -1.05880865074796    9.90178980114052    9.36064034825358
C        -1.88682931689058   10.94624517122207    9.67197609045948
C        -3.18674248011879   10.71371899596142   10.14505812151236
C        -3.64815863391312    9.43321332901437   10.30039138727352
C        -2.82349799770624    8.33831117776454    9.98854769864366
C        -3.22795498296259    6.99337348372595   10.13074356026314
C        -2.36866296562862    5.98604823972022    9.79503138213852
C        -1.07557485780038    6.29559728911892    9.31757885181787
C        -0.11425611113298    5.26094670646755    8.94117097839134
C        -0.48406231734640    3.90502901815712    8.79814030808034
C         0.45467603833666    2.97777010918762    8.44472404533667
C         1.79043904264090    3.37882860461079    8.22574781242234
C         2.81774579636716    2.48953315882997    7.86551237669898
C         4.09245264520528    2.94933516450564    7.66254372554891
C         4.38561031612766    4.31296261968005    7.81052301648891
C         3.40710481403264    5.20438361548794    8.15973341864412
C         2.08840717913569    4.76192797226987    8.37663088355568
H         4.35601128320729   11.17626047274088    7.40131891499886
H         5.78042186901417   12.42781878168878    8.97703652674222
H         5.69744373154248   11.87449704715044   11.40011992058607
H         4.19333019271204   10.08374717026701   12.18052640609127
H        -0.05737058267345   10.07264887007701    8.99054233462205
H        -1.54003373974951   11.96157001017475    9.55370320567489
H        -3.82178346577666   11.55272041883412   10.38646475911768
H        -4.64752656484324    9.24363315576265   10.66430089900624
H        -4.21646228739964    6.77508821497412   10.50826384438040
H        -2.67188902880846    4.95976594904199    9.91853115501443
H        -1.50678490463760    3.60183074836718    8.94825694384749
H         0.18829389849742    1.93745817376640    8.32632049398882
H         2.58142597421780    1.44139265300394    7.75324819421849
H         4.87956056515112    2.26395873489728    7.38660713790307
H         5.39497295411474    4.65855892183724    7.64630736057296
H         3.62419790485878    6.25767239310860    8.27430714672919

