39
CSD_code = YOLFUB | q = 0 | S = 0 | Stoichiometry = C14H16N2NiO6 | MND = 6
Ni        0.17626004613346    7.25005865268719    3.07198751407318
N         0.61422788951287    5.15650635248337    3.50010940706594
N        -0.38910641111583    7.80680435231106    1.03403281948572
O        -1.45306617012224    6.77700012458117    3.71526099436162
O        -2.71392027966622    5.24698487404600    4.68995587101370
O         1.80263204411564    7.82470567657045    2.50830527647388
O         3.04145531025667    8.64959809784588    0.87015677144106
O         1.08311178686798    7.64965202659693    5.16534595559641
H         0.73718728017832    8.53922769703453    5.30377316363954
H         1.99350947134220    7.75680054030024    4.86351880050593
O        -0.65408168545746    9.39832847090620    3.72194299141578
H        -0.91235298776394    9.82156300114340    2.89787827755111
H        -1.44775192291184    8.98409227824417    4.08812615395758
C        -0.47586922776314    4.66958537956332    4.11059305566427
C        -0.54513414707079    3.38989929521493    4.63380401887846
H        -1.46032239734620    3.07823326331906    5.11130583888255
C         0.56592037274486    2.57121319383176    4.52273376098631
H         0.55849666080204    1.56657137785419    4.91908296496297
C         1.68815100038630    3.07308065818450    3.89163970019598
H         2.57566566521493    2.46854462403720    3.78224819497978
C         1.68715961034886    4.37473653888411    3.38768198583863
C        -1.65952732097568    5.61074610237070    4.20301183609482
C         2.89518398190027    4.90214500150005    2.68817215919339
H         2.87177190746028    4.60133176025785    1.64039121893300
H         3.80389811658378    4.50608455361786    3.13418350807660
H         2.90969929793695    5.98769699011091    2.72501935051809
C         0.74857223966557    8.18893144017212    0.43142367840842
C         0.82175823222166    8.52412893964017   -0.90936100801289
H         1.77628192011991    8.82427502023023   -1.31124513279288
C        -0.33280692202983    8.45810300446766   -1.67151546463644
H        -0.32101172685236    8.70613667075393   -2.72246445878058
C        -1.50396369396286    8.06866940157596   -1.05042870407144
H        -2.42924212452851    8.00760439508556   -1.60296578765339
C        -1.50681411255705    7.74953656300185    0.30868893509739
C         1.98381484425313    8.24203788010946    1.31455395103580
C        -2.78621506400298    7.34828086876256    0.96557514272591
H        -3.16647037484512    6.43528041912911    0.51029024863506
H        -3.53851131021927    8.12412608751674    0.83162297925957
H        -2.63188979885509    7.16999842605235    2.02576403100060

