83
CSD_code = YOLHOX | q = 1 | S = 0 | Stoichiometry = C37H39I2OP3Rh(1+) | MND = 5
I         1.83260060013438    2.10092291417593    2.49704592037135
I        -0.54508977317954    5.12754218762198    2.12007912800136
Rh       -0.57939340397128    2.77917154545054    3.33007500092778
P        -0.64835608051405    0.68024815398518    4.18961492193469
C        -2.39704153347258    0.29024154936874    4.70756477087682
H        -2.84238579804545   -0.21978237677770    3.84269961841872
H        -2.38377525219155   -0.41443281166304    5.54417425881033
C        -3.20299670715375    1.54174727976069    5.02145473672704
H        -2.94748758343400    1.95476304206799    6.00114405212892
H        -4.27645312134641    1.32904180212929    5.00061298183154
P        -2.80666713391607    2.83934071862672    3.77049898041252
C        -3.83583713781002    4.23558577987839    4.43421804703007
H        -4.77943893132819    3.81231895121483    4.79089845734812
H        -3.28810367934795    4.62871730846571    5.29697086256246
C        -4.06899050284427    5.33134732815693    3.39846843937555
H        -4.86816052469436    5.06721688200705    2.69816916961896
H        -3.16048340609273    5.49956619386218    2.80650926684954
P        -4.51414070978976    6.91931752592745    4.18003551379303
C        -4.47980838936776    8.21181968981736    2.92253698898707
C        -5.56982618804701    9.05483180609605    2.72204546943030
H        -6.47255517315569    8.93984169216580    3.30295532006685
C        -5.49528242663908   10.04762729876441    1.76163952189454
H        -6.34010356319777   10.69981025242634    1.60228514242917
C        -4.34238706512221   10.20472713827279    1.00852413286173
H        -4.29136570834859   10.98101351361637    0.26119067843927
C        -3.25600472698725    9.36803335598374    1.21351061873733
H        -2.35746713396214    9.48583504343724    0.62895050775335
C        -3.31644791555436    8.37211061831295    2.17036954493031
H        -2.46312115507164    7.72666420615975    2.31926908745980
C        -3.35015677149974    7.28383150625211    5.51042915879717
C        -3.79511080256779    7.77756881225053    6.73429557494802
H        -4.84755592188603    7.93408958520366    6.91756636079511
C        -2.87666457986711    8.06786813727073    7.72714437853276
H        -3.22002289484072    8.44815500582833    8.67685324757753
C        -1.52249789268211    7.87410645948493    7.50424936084350
H        -0.81215183863425    8.10336319172277    8.28330892063669
C        -1.08046690113242    7.39152766099276    6.28251744418514
H        -0.02676865762636    7.24711108597270    6.10225790188361
C        -1.98782644207280    7.09855429071279    5.28219626859032
H        -1.63521937380903    6.72298911744273    4.33365014331697
C        -6.18395470583265    6.74270462662219    4.86326871213090
H        -6.17328539955946    5.97172249579878    5.63402351505567
H        -6.86289091465062    6.45138388352167    4.06124621087951
H        -6.52276913806982    7.68094706308108    5.29989661442311
C        -0.33074875640382   -0.77929677936995    3.16194818062349
C        -0.11695980256469   -2.01369015824628    3.76933867496046
H        -0.07507870090085   -2.08684661224667    4.84764733413381
C         0.05834073535688   -3.13912779723007    2.98645650276896
H         0.23689121412368   -4.09423150587907    3.45679499952664
C         0.01124212059896   -3.04244105937776    1.60431403187772
H         0.15848289369430   -3.92307031755490    0.99833776558610
C        -0.22096452574640   -1.81836231558651    0.99963060249315
H        -0.25775518767745   -1.74131203754709   -0.07628156499719
C        -0.39567597826167   -0.68860675090008    1.77696463767606
H        -0.56239945996756    0.27024228451270    1.30160079055920
C         0.36709353185996    0.43583937038694    5.66896072564446
C        -0.10572920257584    0.80491750218348    6.92576264538120
H        -1.11225296106612    1.18086204308807    7.04241785441297
C         0.71676008595786    0.69376706868917    8.03190698428086
H         0.34406229852702    0.97566074818444    9.00524437975735
C         2.01384053710091    0.22678581491408    7.89159286357746
H         2.65310420681640    0.14485632261758    8.75707839457562
C         2.49056766240625   -0.13329452970141    6.64103838528302
H         3.50099943756771   -0.49458587312585    6.52757408879188
C         1.67477572095199   -0.02667693040012    5.53000767871564
H         2.04946865511212   -0.30355113201043    4.55452883599935
C        -3.73349992604508    2.29798146024797    2.30294632006290
C        -3.00055714758524    2.06119489464402    1.14447700025497
H        -1.92424425319421    2.25047532467249    1.13907741922470
C        -3.62232618974834    1.60451437195666   -0.00228301088280
H        -3.04588602394939    1.42299209244009   -0.89645481240778
C        -4.98990041978647    1.38601393785736    0.00434489646523
H        -5.48270817612565    1.02944962475423   -0.88678186652693
C        -5.72955241053814    1.62498884583670    1.15311692514813
H        -6.79552126687840    1.45287047904594    1.15302920172222
C        -5.10797925271888    2.07878644057470    2.30128153905383
H        -5.69137452775744    2.25563106952544    3.19518469721839
O        -1.17672760707447    3.72843528961217    5.85202483864810
C        -0.23647091928724    3.56730884306283    5.12117002324001
C         1.16921877660453    3.96720116975475    5.44244680424080
H         1.16778629277523    4.51271476458596    6.38665216824495
H         1.60158325642083    4.58679687068382    4.65607380533574
H         1.79580762916473    3.07989565395731    5.54351430676432

