44
CSD_code = YOLJEP | q = 0 | S = 0 | Stoichiometry = C21H19HgNS2 | MND = 3
Hg        3.74000262066810    9.73865964481950    0.45097330183965
S         5.73715762812869    9.05460759380766    2.21781346425352
S         3.55785001029269   10.96957619621584    2.90264923145499
N         5.45811601691841   10.21608967133841    4.56638456470199
C         2.05367737576985   10.10851669837227   -0.96331536621160
C         1.95602429404122    9.56447028466525   -2.23935127690456
H         2.72915994584197    8.91472271557244   -2.62799210568057
C         0.85572145479140    9.85234121709580   -3.03373662561356
H         0.78963847044099    9.42403107913423   -4.02332941432819
C        -0.14912504984583   10.67979972768654   -2.56549920872206
H        -1.00364147533304   10.90012084052940   -3.18839300556675
C        -0.05537258815357   11.22414421813189   -1.29691020053427
H        -0.83522837477642   11.87169034487503   -0.92366196204074
C         1.04137272916154   10.94121829791209   -0.49675530666880
H         1.09880139827009   11.37768403276950    0.49605448435887
C         4.95542027193053   10.09726297337302    3.34389491444644
C         6.65592867976530    9.52261336649032    5.00615311452467
H         7.32779333802164   10.26109928791879    5.45565826040063
H         7.14608490566830    9.08508496313849    4.13311290231542
C         6.31895771151744    8.44506079115609    6.00427451564474
C         5.44091249157148    7.42706144535956    5.65186326005977
H         5.02162360272280    7.40723320431678    4.65666802037932
C         5.10841629946225    6.44361320609222    6.56515090824928
H         4.42500330200846    5.65671655294633    6.28238403432646
C         5.65273961780301    6.46600463488162    7.83870131011174
H         5.39389266787962    5.69730902403779    8.55162165806700
C         6.53057373659964    7.47510571962693    8.19489160437361
H         6.95843776958559    7.49586105152690    9.18646872676126
C         6.85906436958841    8.46322344751572    7.28260104037578
H         7.54358432341538    9.25186051088279    7.56255097345812
C         4.84990550979856   11.04477046794281    5.59347407041545
H         4.71464806373609   10.42865243969781    6.48842475517555
H         3.87127396350328   11.37322581078920    5.23600322736214
C         5.71733559170568   12.23697687250849    5.90221659861670
C         6.27521086405892   12.40727049089040    7.16164059752886
H         6.06863936027746   11.68565789328352    7.93987135911959
C         7.08646197061423   13.49764262758334    7.42553887130661
H         7.51365467912582   13.62379814318405    8.40960466368256
C         7.35256563464559   14.42132450994913    6.42966873877446
H         7.98776731978879   15.27019417286221    6.63498917477254
C         6.80081687736485   14.25549635518185    5.16988618067948
H         7.00397375127591   14.97560865773479    4.39118761024842
C         5.98633493967312   13.16939562796155    4.90736773760755
H         5.54962393069384   13.04070318826828    3.92790059687390

