95
CSD_code = YOLKAM | q = 0 | S = 0 | Stoichiometry = C36H46CuN2O5P3S2 | MND = 3
Cu        7.37581676883072    7.68509552198116   15.04868666898383
P         6.45541727950231   10.05126247226798   15.55935437855857
P         5.46647817089657   16.18094849220100    9.15083509860807
P         8.76497274329106    6.12444143273088   15.83922765760664
S         5.53870101213199    8.34946419289336   16.07074224414857
S         7.99454927527519    8.51788456792780   12.99153512983385
O         7.91230695085490   10.20965980678292   16.19349379432532
O         5.68901268836370   11.23408221559357   16.29698986275003
O         6.20950117657869   16.59422271942818   10.50926118843080
O         4.65059502865405   17.51214001876548    8.73195834200938
O         6.34553892464062   15.67665197805255    8.09130510313704
N         6.53975268388953   10.54505093534687   14.02590353980225
N         6.94793906990791   10.51265913412093   11.76245697815895
H         7.36209144385365    9.95071564291482   11.02858403762072
C         7.08038493342129    9.96546738740507   12.99112947526397
C         8.08061035154278   10.17231564761581   17.61907616532764
H         7.12189539675488    9.89190421118412   18.07817669033947
C         9.12923403544248    9.12225075698141   17.95293112952038
H         8.77856313963646    8.13350013324280   17.65212038688322
H         9.32096175280994    9.11506990264967   19.02254241763292
H        10.05397849051863    9.33690340533174   17.42184225185935
C         8.48347424446833   11.56261069249757   18.08632802540627
H         7.72011005424734   12.28072718952373   17.79767432304079
H         9.42425473561098   11.84702548581208   17.62140271744916
H         8.59773160820852   11.57392147813920   19.16716616622911
C         4.26568405641716   11.29078640310185   16.40858215577660
H         3.90941007360580   10.29770067899120   16.71660990118927
C         3.95376573203112   12.31310687926433   17.49251273889401
H         4.42755134926397   12.02585038722010   18.42805678792207
H         2.87984109792571   12.37307578335150   17.64333427094926
H         4.32894532533341   13.28990372186731   17.19664070937836
C         3.63772527104959   11.65524794961753   15.07311296808770
H         3.93245764455144   10.92582732863143   14.32159527473498
H         3.97791249459546   12.63675502932963   14.75282759231085
H         2.55459724794572   11.65926740252918   15.16150041614671
C         6.26453923014748   11.64863111288940   11.34017145275069
C         6.02955686505718   11.78729347811317    9.97106894814371
H         6.38871396556742   11.02846011234328    9.29050514861700
C         5.34335213633038   12.87987832318034    9.48416803176944
H         5.17180580617612   12.97828920145495    8.42307275853484
C         4.87327980803161   13.86391442559779   10.34627196546301
C         5.13775520667893   13.73880138565630   11.70316535594009
H         4.80374542470614   14.51114547326619   12.38086182177206
C         5.82390845528251   12.64777481700537   12.20293478351130
H         6.02622482747881   12.56302351843249   13.25629364033415
C         4.16907939602523   15.06326529134998    9.80272558564014
H         3.60946662955347   15.59392931017717   10.57013201188314
H         3.50650956719437   14.80563617666236    8.97599006805539
C         7.61542807377462   16.79812858534080   10.48680271697810
H         7.93469119700063   16.72967759057182   11.53063088386868
H         8.08360873892546   15.99531009199507    9.90826078040332
C         7.97854208562271   18.14487233926540    9.88591021690020
H         9.04870534688864   18.31497387510479    9.97169675827414
H         7.44449615187324   18.94136139214143   10.39880739208222
H         7.70027007763235   18.15037251875653    8.83437269644002
C         4.65616136910156   17.97200057782284    7.38792183078910
H         5.35293846524661   17.36174735827578    6.80362496063895
H         3.64500871762937   17.83998723131688    6.98681577947149
C         5.04960791064610   19.43986660572670    7.33842476495427
H         4.99091699363297   19.79865050260618    6.31437523564170
H         6.06408512442786   19.57367324165150    7.70407250181125
H         4.37714335708236   20.02500353194630    7.96043216892370
C         8.75816747321788    4.99559965552035   14.41682350127932
C         7.53980619432735    4.85655596792829   13.75843706981012
H         6.69053341092769    5.43627482027071   14.10338333399739
C         7.42844882952930    4.00938276394944   12.67333893008854
H         6.48312380208374    3.90842675588643   12.16140979650788
C         8.53576804834405    3.29905344693570   12.23739382599084
H         8.45369209085101    2.64161770692382   11.38447513922188
C         9.75070081125820    3.43795638239205   12.88763825522171
H        10.61438398544066    2.88830453473674   12.54222843761557
C         9.86686401981547    4.28208143142828   13.97759543221118
H        10.82054516319024    4.39863194223210   14.47392412279781
C        10.52872949624731    6.47822542713122   16.06945672979265
C        11.16241230547561    7.12774068024883   15.01003951561438
H        10.60259217619602    7.32577257822423   14.10425786497855
C        12.48365238615282    7.51202228947927   15.12673190692339
H        12.97549310145496    8.00754962986909   14.30277784779488
C        13.17471867805762    7.26796158299625   16.30458533115456
H        14.20813691236835    7.56845293970307   16.39593620099993
C        12.53848657583292    6.64912165834505   17.36785176973825
H        13.07458096371534    6.47072133750487   18.28880476291829
C        11.21475108170027    6.26005890320178   17.25886971910077
H        10.71599461551866    5.78561709981782   18.09267817589584
C         8.32849294910712    4.97860815947090   17.18675285934871
C         7.22977715064699    5.30368998866168   17.97485683763432
H         6.68366663439396    6.21706786930428   17.77212795164433
C         6.83436847709878    4.45282698272034   18.99217725980586
H         5.98032212801855    4.70391857902775   19.60352396749715
C         7.53159644784727    3.27828849521833   19.21981772329520
H         7.22383244519327    2.61286615515567   20.01307929748033
C         8.62004275978757    2.94712264131841   18.42623824692145
H         9.15510590765137    2.02499670967429   18.60155238178853
C         9.01926274084380    3.79075947936569   17.40727155307688
H         9.86054707009790    3.53356035199158   16.77875740675655

