58
CSD_code = YOLLUH | q = 1 | S = 0 | Stoichiometry = C20H27ClHgN3O6(1+) | MND = 6
Hg        2.79032476852370   14.17797129339364    0.69887335190040
Cl        5.17340724198547   14.00451091695967   -0.95583664010536
O         2.23454188701420   12.18090328286590    2.21949100297815
O         1.35372742027611   12.34430849199227   -0.44066321070000
O         4.24720540987538   12.96784388879596   -0.51296334431522
O         5.69068331901826   13.69010144255986   -2.19967225349781
O         6.14929588711031   14.15900410049407    0.05503532644409
O         4.38625104895279   15.21411306031177   -0.99561836340886
N         4.42109350552388   14.28732179812021    2.34484806745731
H         5.24650733404872   14.34937784667453    1.73213701690746
N         2.60387240939632   16.38047960984383    1.62868518206182
H         1.90662330598019   16.43349241574515    2.37191457694741
N         1.51584524264577   15.37479982747316   -0.83642338869866
H         2.27070053173470   15.60644985911063   -1.49071234658075
C         1.28107557980789   11.28258530051388    1.67297673120018
H         0.26681768251033   11.69255906324348    1.76016112499262
H         1.33685452558948   10.31792847212468    2.18904704958603
C         2.28828457246187   12.31981407824365    3.59465128688650
C         1.23807423546274   11.99751582017435    4.44174154562692
H         0.31440824649348   11.60306092515624    4.05055329915673
C         1.37065762567575   12.18270702601795    5.80909166155893
H         0.54880704071254   11.92666907860520    6.45879211518369
C         2.54486717955934   12.68674055756466    6.33576054557569
H         2.64840750344647   12.82675345382232    7.39957731292331
C         3.59500467549450   13.00014409313908    5.48919863039540
H         4.52082473842997   13.37390229930261    5.90025243723410
C         3.48875097984786   12.81876170798595    4.11784366657676
C         4.65160963370827   13.10691096751119    3.20623948188495
H         5.55337404482131   13.26562275985219    3.80926155372221
H         4.82013052004007   12.25140302598851    2.54456944814749
C         4.34625181642097   15.53468665008713    3.11825159948482
H         5.31610135535933   15.77115877066593    3.56962892029736
H         3.61138781287802   15.39795314573461    3.91931536514128
C         3.91770277447247   16.68367153209511    2.20624371884692
H         3.90214988659074   17.62287265081876    2.77091973588904
H         4.63230079212919   16.77878653401759    1.38342039924070
C         2.19824008506019   17.27406959898824    0.53977712741752
H         3.05651351293060   17.39661939321957   -0.12664702194587
H         1.89534992717819   18.25731883841030    0.91685453121539
C         1.05386897044936   16.63706501119780   -0.24776215427411
H         0.20616012223830   16.42540486941970    0.41257152860308
H         0.72060157243730   17.33221117915819   -1.02719196532658
C         0.47131169817645   14.67947692002347   -1.61691682714837
H        -0.02738387238522   15.39253678961948   -2.28475868562713
H        -0.27014631409706   14.27078335216148   -0.92298193782749
C         1.09912652316224   13.58176099642325   -2.43429517675046
C         1.27627815153799   13.73104603666427   -3.80133617047522
H         0.93017344858182   14.63326970935459   -4.28345531100999
C         1.87992970399238   12.73763433086797   -4.55252327352519
H         2.01359581332234   12.86815911844422   -5.61411872258071
C         2.31209126212661   11.58206474996789   -3.93022428557355
H         2.78738543605406   10.80243039796968   -4.50398861212247
C         2.14631154736192   11.41131190864697   -2.56476955039924
H         2.50461139386778   10.50636704736202   -2.10432790555356
C         1.55359212317452   12.41223611848459   -1.81099339879435
C         1.62688674681111   11.10638219543140    0.19984396335525
H         2.69064168044257   10.85902321474622    0.10417660210763
H         1.00613793357455   10.31504247643574   -0.23612536070597

