59
CSD_code = YOLMAO | q = 0 | S = 0 | Stoichiometry = C22H27HgN5O2S2 | MND = 5
Hg        5.59988291729514    1.73880328443406   20.21613384147235
S         7.90253747487383    1.71617253484652   21.23999896794216
S         3.88885384650435    1.12307173447713   21.93105630532231
O         2.19120851006561    3.42327892981808   19.60561442218710
O         1.89378143809424    0.78454956253589   18.49527408612347
N         5.72792589146243    3.96562733136893   18.84178727839434
H         6.47163420030671    4.40343232288370   19.39240829461172
N         6.97497639645189    1.54362480330986   17.84032321764018
H         7.79309892362022    1.02888375399212   18.15747605676840
N         4.65569914015754    0.00588575341907   18.48133252472299
H         4.03520804596975    0.70394711166494   18.06738390892793
N         8.33500489875064    4.40113433337515   20.55728296008489
N         5.01676148805630   -1.42311286175501   22.33339789082673
C         1.12149915715765    2.54480175386215   19.87921428673073
H         0.21827565183588    3.11014034220004   20.14710999175693
H         1.38623867983389    1.86307543075172   20.69614120224409
C         2.81538392639841    4.03225441440812   20.66168491036583
C         2.33746551070893    4.01398782317945   21.96744201361455
H         1.41405312133522    3.51254658253617   22.20911479335509
C         3.05444023682366    4.62518485412904   22.98210076736330
H         2.67423209395659    4.58526517784836   23.99161401370302
C         4.24616300123003    5.27086172471909   22.71224401500848
H         4.81026687033438    5.73377138103777   23.50668741481442
C         4.70875939861372    5.32516973819176   21.40871944031787
H         5.62868707344483    5.84702569739120   21.18603269240453
C         4.00475635619644    4.72224346805674   20.37492987162675
C         4.52551091580221    4.79477564973546   18.96465647665783
H         3.76808115368159    4.40717557847998   18.28025869462394
H         4.74292547838774    5.83996598453169   18.69778142309369
C         6.20669328654616    3.85378198381593   17.47002809638241
H         6.53635799917646    4.82665755902611   17.07877826671774
H         5.37708379885993    3.50185389503961   16.85012166589605
C         7.37905412518797    2.87238437780552   17.39431426327342
H         7.76656030800381    2.85243605448758   16.36511470326884
H         8.16943690185124    3.23167489671034   18.05648149989316
C         6.29183976409625    0.75870432796914   16.82012660195164
H         6.98425139285425    0.40984439917178   16.03880064022652
H         5.54141312692785    1.39567558207225   16.34479028524710
C         5.58849850404150   -0.44067983236200   17.44913973143394
H         5.07000000686513   -1.00263458798891   16.65843555622231
H         6.32279567746854   -1.10058872857865   17.92141818772375
C         3.78130444859206   -1.08085907680703   18.94963388989691
H         4.38814076626107   -1.96841533922455   19.13409855216504
H         3.33451676377291   -0.76849744536310   19.89710463498007
C         2.67543669711982   -1.35870945102987   17.96694670132483
C         2.58127186607407   -2.53877585345101   17.25249102708871
H         3.31913741667821   -3.31085200671515   17.41431894148577
C         1.54733238940282   -2.74369643658258   16.35159399736265
H         1.48285679184907   -3.67120060522692   15.80427301250933
C         0.60214493247150   -1.75466016081369   16.15977059877783
H        -0.20492371099451   -1.90368823636882   15.45845349752012
C         0.67805812908410   -0.56097245455204   16.86088265048041
H        -0.06428923570091    0.20376865415766   16.69175783014568
C         1.71008948457760   -0.35719388094653   17.76515879346194
C         0.84343151559123    1.71454829348945   18.62786505925778
H        -0.11717189671228    1.20042586618301   18.75123761234980
H         0.79742935190136    2.37134854120232   17.74899498327204
C         8.15382624108942    3.30093770936684   20.85767469495560
C         4.58761135970905   -0.36916223992353   22.16439226202591

