54
CSD_code = YOLMOC | q = 1 | S = 0 | Stoichiometry = C20H27ClN3O2Pd(1+) | MND = 4
Pd       -2.35511711510894    4.48416863628078    9.40826302215613
Cl       -1.80113710629810    2.31253510803846    9.70698968430695
O        -0.80090825711125    4.53308987344662   11.73499751353562
O         0.03614209018430    5.79494879169530    9.36854710480428
N        -3.68233209247300    4.74544125063401   11.07973175398116
H        -4.32848255027621    3.97907222778371   10.84818627478530
N        -3.38420072597482    6.20017090705972    8.61401840029530
H        -2.87849298434173    7.08058022605851    8.70692381216675
N        -1.61899744022113    4.30696644362768    7.46777976127147
H        -2.12423817175405    3.43605917384841    7.26238982878748
C         0.56636444720487    4.66810977955600   11.40539540890190
H         0.89178820614711    3.82899209325866   10.77615863471261
H         1.18011441820260    4.71646079214629   12.31412822978745
C        -1.18552999197756    3.41335111530102   12.43102192331132
C        -0.36108645182863    2.34981190468646   12.76545373629504
H         0.68146413441071    2.34458851201077   12.49350957996759
C        -0.88869664076747    1.25891771620935   13.43812631477540
H        -0.24287607414290    0.43019542339181   13.68265150236626
C        -2.22499080094040    1.22101372188103   13.78880459924696
H        -2.62911474608108    0.36445987656768   14.30376989402923
C        -3.04278819536818    2.29512190722162   13.48037620396153
H        -4.08351939876456    2.28264906839245   13.76936091207514
C        -2.53318072147180    3.39488747511349   12.81333631177738
C        -3.36218262624243    4.61047881770461   12.51355403590486
H        -2.79200107768368    5.49782843248462   12.80687262420532
H        -4.29239549638192    4.58008108902130   13.09616248890836
C        -4.35218159911725    6.03579983087541   10.84504834463758
H        -5.28761642279863    6.10009160005125   11.41881915183255
H        -3.68121439720159    6.82637173052501   11.19993396826839
C        -4.64285887909647    6.25080327031658    9.36083472012109
H        -5.29181586528895    5.44330983745049    8.99933615225487
H        -5.17340329545887    7.20146554878780    9.21863278964255
C        -3.52333592371959    5.84393865165355    7.19654422245490
H        -3.91330046494758    6.67886344738812    6.59875684908731
H        -4.23332708275898    5.00940703224957    7.12263442805143
C        -2.16582058816606    5.40172398991897    6.64981152217141
H        -2.26432648647426    5.09909706095228    5.59907342453135
H        -1.46569929000306    6.24179888235760    6.69661164841771
C        -0.19436681834139    4.03453013654656    7.19183389816152
H         0.16049915161962    3.37419778031144    7.99177668034887
H        -0.09801128515041    3.50487970109202    6.23554598815382
C         0.64541560997420    5.28194908307926    7.13029539065253
C         1.33134256973488    5.61299303063663    5.96926886922266
H         1.25680859745508    4.96354829961509    5.10988404161973
C         2.12197175833303    6.74669411154967    5.90412120425728
H         2.65582600878686    6.98054893479996    4.99732479186504
C         2.21929655691434    7.57816166781587    7.00563475285962
H         2.82416245334016    8.46998871332399    6.96234572569545
C         1.53695321631691    7.27274544507410    8.17020125813908
H         1.60585355090818    7.93397161649979    9.02036087015727
C         0.75565252252988    6.12485805749073    8.24209245197513
C         0.69476308366826    5.96849122531644   10.61789911713987
H         0.20676491678523    6.77972512655962   11.17140765910687
H         1.75276377122070    6.19996582434244   10.47116052285563

