60
CSD_code = YOLNAP | q = 0 | S = 0 | Stoichiometry = C30H20BrN6O2Re | MND = 7
Re        0.84934117229816    2.88027228400183    6.97284677426465
Br       -1.28025933268838    4.07832681668821    6.46822195364352
N        -0.11920454960204    1.90239405627245    8.52068288226957
N        -0.11586642035560    0.59896924120556    8.58822505889670
N         1.57381598916022    0.90193624613030    7.04289670688857
N         1.75209812945512    3.90879175070995    5.42054618520185
N         2.84731969427872    4.58873382429206    5.62476437186055
N         2.83139657042745    3.30935190768761    7.54797640670696
O         0.75440739051146    4.26727691264617    8.65257161710943
O         0.25615835805010    1.89988372497745    5.11449569596166
C        -0.18317617168123    3.97893971496721    9.47452160380332
C        -0.64537948835364    4.90876830305608   10.44614947732708
H        -0.23820472429471    5.90723006057307   10.42004806664813
C        -1.57772386611612    4.53031763437274   11.35518237282108
H        -1.93680227539453    5.24042468156472   12.08666638294359
C        -2.11832383133126    3.21496001125988   11.38333969578342
C        -3.09375036594163    2.85796234749247   12.32748965498875
H        -3.42046256085869    3.60041213092956   13.04157182270424
C        -3.63048289850992    1.59505852591572   12.34333400445401
H        -4.38061160276952    1.33111444110850   13.07412080554272
C        -3.21006197013033    0.64964158033741   11.40646750616774
H        -3.64207370123006   -0.34022398236865   11.41745441983308
C        -2.25390811027495    0.96677611639435   10.47217725644168
H        -1.92913875829146    0.23579098388375    9.75003701919473
C        -1.68235406437486    2.24779117662337   10.44270258955701
C        -0.71417462348590    2.65324143193393    9.47062891361562
C         0.78078172290365    0.05665895008430    7.76155529839781
C         0.95578022272994   -1.33996094831305    7.68955446620150
H         0.29184461966561   -1.96156173702407    8.26633382390696
C         1.94869204968640   -1.84766044509775    6.89869554300047
H         2.10229234612705   -2.91290059095364    6.82072669398605
C         2.76970757865695   -0.96478912891039    6.18397706569272
H         3.56408404084752   -1.33173991661562    5.55557886992042
C         2.54075607604392    0.38477209506515    6.28292622650515
H         3.14430582514603    1.09459552969617    5.73227613141421
C         0.35570492152733    2.67306430109353    4.09966236602458
C        -0.26973057899681    2.37223674987849    2.85824048662599
H        -0.90769200624900    1.50363957856740    2.81424237771956
C        -0.06464908956714    3.17515299584373    1.78485514747601
H        -0.54855719651740    2.95187790496152    0.84451921205815
C         0.77020208868454    4.32522746491000    1.84687854346763
C         0.94806674062104    5.14769967564516    0.72341225228025
H         0.44618469317760    4.88448012517991   -0.19675058669338
C         1.73622207575062    6.26930112227072    0.78878508484962
H         1.86574358071252    6.89545097660747   -0.08160310392131
C         2.36753341988961    6.60637434060042    1.98718552840679
H         2.97890654328505    7.49545008474528    2.03587915758760
C         2.21776407117778    5.81885746205104    3.10300095323130
H         2.70662227928675    6.07893294689345    4.02751370485625
C         1.42607008515160    4.66142379237724    3.05798203055828
C         1.19627003810932    3.82371886228391    4.19444677260400
C         3.41460947575333    4.28466060293278    6.79418407898937
C         4.61782375801538    4.89500779153194    7.20174623239424
H         5.02662362686844    5.67067024379444    6.57637878401909
C         5.21352531955558    4.48545938528064    8.36213986271548
H         6.13290637079449    4.93789655674771    8.70048783464032
C         4.61328182664702    3.46628099701515    9.11400683397016
H         5.05908317447748    3.11696067248309   10.03042769506619
C         3.43291668698372    2.92167313366342    8.67385132773321
H         2.93264562455645    2.14514650205228    9.23788405968541

