92
CSD_code = YOLNIX | q = 0 | S = 0 | Stoichiometry = C49H37BrCuNP2S | MND = 4
Br        7.92187154006450    8.60901896694066   15.05671511107770
Cu        7.28433496597056    6.55671571570499   14.22713673487302
S         8.73824300998799    4.81359570446088   15.73540513995204
P         7.16461969980031    5.75012205140391   12.11179231975455
P         5.55564412117371    5.32440301863708   15.01894880882555
N         8.77390722022336    6.71427955151885   17.55743436030403
H         8.78588846678896    7.35510946839607   16.75014525105447
C         8.68584420515609    5.37894828203622   17.30657745275408
C         8.74206721419095    7.23590824616042   18.79312361014727
H         8.80265256707282    8.31200445516464   18.85095988098801
C         8.63700638949394    6.43105117933515   19.88892327723804
H         8.62013683114831    6.84893089541663   20.88092513211489
C         8.54671245913298    5.03662701161626   19.69165988860909
H         8.45669139025081    4.38193525951137   20.54525675324290
C         8.57043634157021    4.52322780175067   18.42992811651923
H         8.50138936684426    3.46312174098016   18.24510078401053
C         7.76149721473196    4.14453922026711   11.49718697690298
C         8.62420998940517    3.40929481589760   12.30119129289436
H         8.91885922279611    3.79977275187409   13.26576179756328
C         9.08953192293382    2.17999129667351   11.87078874941280
H         9.75276322082591    1.60669896099092   12.50125333204044
C         8.70326004391210    1.68785885659892   10.63595275964335
H         9.06539518793597    0.72769022633126   10.29907246238363
C         7.85068164573949    2.42402188539792    9.82809182525870
H         7.55294356921734    2.03861651196851    8.86365408445129
C         7.37326817505233    3.64743464237180   10.25574870005803
H         6.69721672897521    4.22082116551736    9.63484629547234
C         7.89615043741515    6.93847140807504   10.93972710970019
C         7.70290425239442    8.28858058489581   11.23762876154595
H         7.10784564588955    8.56649178582240   12.09897306271074
C         8.27587743938975    9.27010824577790   10.45357053403145
H         8.11891212932667   10.31060046092033   10.69525308071880
C         9.06634089564296    8.91296463715648    9.37263211346693
H         9.52231873661240    9.67710615165425    8.76075161896146
C         9.28559439968416    7.57558756628505    9.08846577986985
H         9.91538013735461    7.29605540287245    8.25611633360069
C         8.71048988094441    6.58777682929195    9.86893235075831
H         8.90281441481255    5.54793970718682    9.64713803739629
C         5.39724196693816    5.69749927610693   11.64814712182232
C         4.82036980746879    6.75201447717517   10.91130602745938
H         5.45658641597417    7.54140268117694   10.53718657092846
C         3.48067084842759    6.78074027695823   10.65987794262763
H         3.04929338492672    7.59349123572891   10.09310322724228
C         2.63515926383897    5.75422498389997   11.12769028952134
C         1.24708362273285    5.76776407551489   10.88487169431167
H         0.82969716342256    6.59520248327653   10.32900917740333
C         0.44692086258339    4.75841934763454   11.34022525375707
H        -0.61599863520832    4.77426280585335   11.14920529590390
C         1.00345698489343    3.69250165744978   12.06205189366685
H         0.36141483453645    2.89966878803687   12.41711795761181
C         2.34428282928771    3.65533865338549   12.32169811221504
H         2.76508446433572    2.83414827862136   12.88289753684128
C         3.20005855898740    4.67924321830333   11.86024979132415
C         4.59349219521141    4.67684745286905   12.13548216468789
C         5.18649565219896    3.55132588924644   12.89149229215062
C         5.32272550893280    2.28731124421082   12.25325051478956
C         4.84183459413246    2.04631659647979   10.94792502399518
H         4.34332634150989    2.84219587646858   10.41494502621554
C         4.98725845268485    0.82079482793668   10.36054876204108
H         4.60269551948139    0.65003507362715    9.36561132313022
C         5.63999618217585   -0.21995723946086   11.03539096350578
H         5.75335963551401   -1.17971597722887   10.55309368758169
C         6.13066762478165   -0.01469784313539   12.29409220405619
H         6.63992670671197   -0.80747223413228   12.82349135130516
C         5.98213425339195    1.23142054599074   12.93388999444389
C         6.49160377871181    1.46217554115871   14.22942086244818
H         7.03345075493838    0.66914367771114   14.72467463796002
C         6.30748265656459    2.66191921024794   14.84594712845410
H         6.72141960185826    2.84199405093913   15.82736750036998
C         5.61039749858394    3.70825300752373   14.20138467481783
C         3.89295920141721    5.97870603196209   14.63689179809160
C         3.80206162154063    7.25683431498134   14.09952855853696
H         4.70837993061424    7.81562116978797   13.89972247819108
C         2.56535038024327    7.80637654109873   13.81859318417911
H         2.49959017485561    8.79705073010147   13.39384886581563
C         1.41482290500000    7.08484520966288   14.08759598360933
H         0.44689585616922    7.51025172692595   13.86766795990115
C         1.50100892598956    5.82026684764673   14.64786311315363
H         0.60087297469457    5.26432915975574   14.86646989373708
C         2.73504480086891    5.26556593755007   14.92542940810378
H         2.80564505549525    4.27943049152707   15.36318349839995
C         5.27635011121845    4.99991660739610   16.79098920962025
C         4.81200571749191    3.81999165889184   17.35999861300148
H         4.57638842286576    2.96628032836584   16.73996556189058
C         4.64906107204386    3.73884055878480   18.73150008878995
H         4.29406649599602    2.81803210610466   19.17215623157165
C         4.93076850862542    4.82795006537086   19.53955480894549
H         4.80250077979959    4.75338977283848   20.60937359961574
C         5.36770212803734    6.01498528642427   18.97467934039650
H         5.57475056613748    6.87181710229729   19.59883559784159
C         5.54311053242729    6.09769936807220   17.60742118576564
H         5.88477342838162    7.02088458189587   17.15381533602676

