92
CSD_code = YOLNOD | q = 0 | S = 0 | Stoichiometry = C49H37BrCuNP2S | MND = 4
Br       12.45023180669305    6.16603458951608    2.90961402338418
Cu       10.30929505196035    5.77780297921527    2.04893377843070
S         9.76931395998648    7.26127853009964    0.12438972855162
P         8.76172089203932    6.36864169281758    3.60435224712413
P         9.46554399335332    3.68532893101787    1.69525788438511
N        12.28601880771436    8.06639973254370    0.30879725624571
H        12.33152685470600    7.48048402378708    1.16133339198751
C        11.12156395750407    8.10810431061443   -0.38757804174222
C        13.39233120700143    8.72843202052816   -0.06323302438596
H        14.25019908285353    8.60348954036151    0.57961097793558
C        13.40078128376519    9.50259599291446   -1.18637149485688
H        14.28817120943440   10.03467539913630   -1.48305319285017
C        12.21755714145499    9.58698718509585   -1.94944712486683
H        12.20073044061070   10.19281249923072   -2.84282875735214
C        11.10311575201094    8.90520008335565   -1.55903411339433
H        10.18214603140992    8.94623370358326   -2.11778867240804
C         6.95209974793560    6.53598172028738    3.41480837801420
C         6.45830257652462    6.61550203879666    2.11760344779923
H         7.14793126099253    6.56174207185411    1.28438371629051
C         5.10140227061416    6.76206453632503    1.89908867408971
H         4.72007724444390    6.81526483271825    0.88982753884995
C         4.23510804052887    6.84353707806454    2.97601468786616
H         3.17392103245261    6.95634154859125    2.80912091924034
C         4.72736585413244    6.78901713859598    4.27005991422827
H         4.04999518355949    6.86211559751432    5.10860538655391
C         6.08195680745164    6.63641726889656    4.49405203809646
H         6.46397204388158    6.59271709807505    5.50373243329714
C         9.07657841026092    7.79000695329323    4.70134153062528
C         9.52685207239284    8.93869624100137    4.05665972304912
H         9.68408693879173    8.91191001540740    2.98496808665748
C         9.77517777846274   10.09270300338672    4.77535137442045
H        10.12953953871954   10.97946429437956    4.27045455088154
C         9.57581653346683   10.10433351463842    6.14560546358656
H         9.77302205993218   11.00202000315379    6.71295299179243
C         9.13069163796593    8.96259273796332    6.79280366004659
H         8.98044962952091    8.97302392146836    7.86295499079537
C         8.88026454251986    7.80587483699986    6.07852810753500
H         8.54974706905644    6.91461120857048    6.59467189614115
C         9.00652500315514    4.92817909104725    4.67871874570763
C        10.09918683560158    4.97278125961587    5.57483312530615
H        10.69121239401691    5.87638834065930    5.63258442297348
C        10.42194866048982    3.88868412817059    6.33304978411424
H        11.26613838890844    3.92473896919885    7.00604120404142
C         9.66046723937674    2.70269349968150    6.25538404835582
C         9.94434168966227    1.58910486533911    7.07011559489817
H        10.76235085780263    1.66123696620594    7.77259595000861
C         9.20117870419126    0.44598666180241    6.97947516157036
H         9.42079942970108   -0.40146959644181    7.61213504792103
C         8.14762538999206    0.36644974335344    6.05828352208096
H         7.56592377064898   -0.54154849542237    5.99342214595335
C         7.85877650516463    1.42264831945711    5.24048677663917
H         7.04976428165209    1.34821801850770    4.52901139197063
C         8.59469512764870    2.62444123155941    5.32150828598673
C         8.31334826601456    3.74444133844577    4.49174680718282
C         7.29323864366724    3.63007789381108    3.42686840101952
C         5.91581257714970    3.58173397426315    3.76429581674235
C         5.46900142600914    3.66768282693374    5.10089409555629
H         6.19919312448071    3.75177600204138    5.89230748402998
C         4.13543905591997    3.63993344397675    5.39628597235030
H         3.80702704060434    3.70162336401915    6.42356322909782
C         3.18142853041274    3.53714126738322    4.37317134291143
H         2.13111013665469    3.52226096022347    4.62490167080624
C         3.58155641561584    3.45764998850527    3.06931803204095
H         2.85510937427721    3.37980737807670    2.27284891130089
C         4.94961224346484    3.47447007737111    2.73169506420832
C         5.38709738678035    3.38641937117408    1.39453618413143
H         4.64882241962981    3.29418854480925    0.61047561517705
C         6.71572186186775    3.41155919856202    1.08838993361497
H         7.03303407133713    3.33135635646362    0.05876193600527
C         7.68841499307890    3.53023888754130    2.10086188445933
C        10.16409459469968    2.28284060275980    2.62360539390088
C        11.36424033930976    2.45932580537898    3.30136197454445
H        11.86975248986406    3.41351308934825    3.26636012482990
C        11.91061551525940    1.41477322049220    4.02527883946981
H        12.83926249951415    1.56027073802828    4.55638657243274
C        11.26601887654129    0.19102653602033    4.06723756791969
H        11.68985222887125   -0.62476714733704    4.63412043626100
C        10.07511269496194    0.00780765378454    3.38136389631335
H         9.57609117959608   -0.95010020275763    3.41097581342341
C         9.51961998984835    1.04895820687271    2.66434588807798
H         8.58604415593658    0.91378318253134    2.13367981822142
C         9.57337099926674    3.10857099677818   -0.02945180637581
C        10.17698135237091    1.91694503933999   -0.41619986589390
H        10.56184140000762    1.23456167598948    0.32794245437924
C        10.28891825404002    1.60472013605270   -1.75979808316132
H        10.75464804036963    0.67497284537718   -2.05332902972167
C         9.81487148158989    2.47645613234162   -2.72553622492441
H         9.90673718181116    2.22603820167720   -3.77222029493506
C         9.23760977159677    3.67847127571203   -2.34751248965267
H         8.88351249262689    4.37141312991865   -3.09689299733762
C         9.12691178229750    3.99756242458436   -1.00853056399710
H         8.70508508845326    4.94902370710354   -0.71029938808844

