79
CSD_code = YOLPUL | q = 0 | S = 0 | Stoichiometry = C28H46P4Ru | MND = 6
Ru       11.29303282856287    7.32322587844278    4.71863703752235
P        10.65608721936421    5.11906479810189    4.73031755203555
P        10.11122250443754    7.76016810519592    6.63569233694408
P        11.29432283684164    9.53740781539322    4.11741328186179
P        13.11687762546208    6.87702666915976    3.40009298486501
C        10.74154133782140    4.25713947135380    3.11097569433045
H        10.19756526597009    3.31350763791036    3.16814520295887
H        11.77100776434169    4.05892528489224    2.82183058442794
H        10.27583572776711    4.90761555803468    2.37143443734780
C         8.87680712625345    4.78729619815761    5.04190237862240
H         8.68775363808401    3.71421525008210    4.99151023015113
H         8.30800833923379    5.30086977996334    4.26712819701482
H         8.56789746703392    5.16264262180397    6.01449965547606
C        11.40434596309287    3.82273611689095    5.81169587379410
H        11.09847251111543    3.98739808249768    6.84263542950745
H        12.48941492736284    3.89495540942877    5.76825644465974
H        11.08571374690437    2.83017022668106    5.49181260816382
C         8.28917752670474    8.05946260343551    6.68511458309357
H         7.78304330440685    7.33814210913449    6.04607560711916
H         8.07543557059051    9.05480460227157    6.30115154479455
H         7.91623722500061    7.97750850787529    7.70642128059193
C        10.26085809615324    6.50391851576936    7.96730566395451
H        11.32114326174328    6.28674043539507    8.09460036250661
H         9.73202698990752    5.58911661933237    7.71041931147762
H         9.85286273248256    6.90418899943286    8.89628966623052
C        10.68025065308158    9.18560149821654    7.64417912539743
H        10.07096597866912    9.26388642198555    8.54559359287484
H        10.61774712797452   10.11628456169561    7.08548720433005
H        11.71992280964751    9.00211464023882    7.91413853564904
C         9.69767719806068   10.41868415516697    4.33280151439892
H         9.72762584804321   11.36933278196631    3.79893650177012
H         9.48778430671609   10.60564871071500    5.38335762292194
H         8.91718094293986    9.78419116502209    3.91416420085880
C        11.48334667613373    9.89683129023421    2.32637486529848
H        10.66793663803973    9.39677429865119    1.80426521547314
H        12.43021709685014    9.52238778068883    1.94492136554314
H        11.42672141003894   10.97321342638240    2.15895389291272
C        12.44619331612618   10.80547793713164    4.80703692703859
H        13.44589595733370   10.64326776892897    4.40990096802101
H        12.49440348430934   10.70302571409267    5.88944077818304
H        12.10923924812474   11.80857818319632    4.54410355912663
C        14.13670104860257    5.42578178509854    3.87585956087957
H        13.56015437923130    4.50509787251827    3.83018805685449
H        14.47475180334655    5.58362549695025    4.89962203300780
H        14.99636803906667    5.34658950747260    3.20922207532088
C        14.47490411984009    8.11103692884846    3.47829843069285
H        14.67386329468988    8.31342681231153    4.53039835732101
H        14.19762531427122    9.03569801045151    2.97758222532015
H        15.36935545522365    7.70288235247758    3.00611553739686
C        13.04001561294852    6.60846252090830    1.57469999379765
H        14.04007154596583    6.64550799055091    1.14171216355798
H        12.41029627388119    7.37048841353102    1.11929764461196
H        12.59240516517514    5.63821214559098    1.36994899213574
C         9.80899064136140    7.34492026655044    3.33537242293559
C         8.91802067387787    7.35806723602020    2.50820175160046
C         7.88093448405900    7.37306598184208    1.54626920674542
C         6.84859839476468    8.31285362525587    1.62497219751919
H         6.84864197334815    9.03254517798565    2.43348520302352
C         5.83853127548074    8.32458945279312    0.68461517345196
H         5.04600124725380    9.05722457297111    0.75710147328665
C         5.83451359961839    7.40280768642083   -0.35052050385294
H         5.04205141912770    7.41425964426206   -1.08507471831306
C         6.85250721188247    6.46620849307524   -0.43839511102118
H         6.85328989032465    5.74511603853479   -1.24470665887388
C         7.86667507933100    6.44848839036217    0.49744076820269
H         8.66152065924152    5.71724520105427    0.42560522225819
C        12.77589607134067    7.30054668474605    6.10164522327407
C        13.66598792480619    7.28611890874598    6.92928206507830
C        14.70350359582772    7.27091539192976    7.89059569061214
C        14.96388874090893    6.12000236367315    8.64036148237069
H        14.36076645498265    5.23607703164378    8.47731104396390
C        15.97769831951230    6.10985449302562    9.57684671965269
H        16.16975955433589    5.21341678587218   10.15098396957670
C        16.75024254665177    7.24181544817553    9.78476490590425
H        17.54323530230163    7.23061513273753   10.51879067125638
C        16.50084168633266    8.38828285086981    9.04661707168390
H        17.10181071187462    9.27341779305946    9.20625925902828
C        15.48889429510479    8.40688693466953    8.10831437549801
H        15.29348596537901    9.30200094606351    7.53190220498834

