87
CSD_code = YOLQAS | q = 0 | S = 0 | Stoichiometry = C30H50O2P4Ru | MND = 6
Ru       19.20063328026078    3.06586000520636   -4.95948221827701
P        20.01032082007464    5.20480935021422   -4.63013668351300
P        17.96457775088644    3.37002254276673   -6.87767295232358
P        18.47543202958260    0.98021027117099   -4.26186480984207
P        21.14412954345790    2.27218847267057   -5.86986166229502
O        11.54673471090664    6.21058576277936   -1.92567055035772
O        21.71138720594170    2.86925961073832    3.48048085388271
C        19.11978856490557    6.15968154549558   -3.35092301579982
H        19.11481483237737    5.56768355190330   -2.43688414750009
H        18.09061551272729    6.31748361208153   -3.66900190852466
H        19.61404531922340    7.11725711879139   -3.18333364116996
C        21.70864599613994    5.35027333625135   -3.93758386289349
H        21.88637684092069    6.38201556055408   -3.63258067063331
H        22.45342004316413    5.06342862515983   -4.67786621720064
H        21.78265983752359    4.69410035789344   -3.07210704049152
C        20.14137487431674    6.52833594570567   -5.91707242326769
H        19.15406570699021    6.95328289329851   -6.08615761469396
H        20.51778026060131    6.11664882678947   -6.85284326821026
H        20.81151892176970    7.31603111279343   -5.57261116077334
C        18.53169089029954    3.11727718046088   -8.61763238167837
H        17.71060793408259    3.31556892108115   -9.30713066465448
H        18.87452288744129    2.09298323982165   -8.75684333154142
H        19.35303423730098    3.79838767824824   -8.83744295284186
C        17.24645545091827    5.04346256370374   -7.11633793891684
H        18.01685698046096    5.71194242876994   -7.49555550497186
H        16.88024165908574    5.40846231253082   -6.15799474396897
H        16.42738507570768    5.00145160478455   -7.83491284478023
C        16.42172543240065    2.38126540483274   -6.97833713658999
H        15.74960579139016    2.79959198089607   -7.72824980291368
H        15.94228958398406    2.39250955403366   -6.00028243678285
H        16.67186304287044    1.35842501693918   -7.25418605057745
C        17.69621216761696   -0.32731916994395   -5.31574687135820
H        18.23008168415119   -0.42732062233683   -6.25985769457882
H        16.66313943600693   -0.05230399311586   -5.51710434626538
H        17.71160532855640   -1.28186828884894   -4.78978436589068
C        17.22515421218253    1.03448759865674   -2.92958840257592
H        17.01008204939940    0.02644474921976   -2.57349353377037
H        16.31633120658669    1.50359609929487   -3.30266948553757
H        17.62448756426288    1.64696225124923   -2.12245763140449
C        19.71333930985350   -0.08655678944353   -3.41438410396504
H        20.19929596324028    0.50161680972200   -2.63806093841102
H        20.46120558967965   -0.44951383539652   -4.11682641320658
H        19.20332359301269   -0.93834893408733   -2.96350650750968
C        22.55454522069041    1.86462838837272   -4.76377433577006
H        23.37403181741669    1.42245575988462   -5.33156650660890
H        22.21675208289998    1.17180930149675   -3.99599477334127
H        22.89447957539103    2.77292941913086   -4.27080961658862
C        22.03830573393773    3.29285822075838   -7.11511432742750
H        22.21577450699229    4.29201828559753   -6.72141630138775
H        21.42195168318622    3.37690238499417   -8.00881003536898
H        22.99014439639310    2.82834879887851   -7.37528497802470
C        21.08853279462513    0.71418971273528   -6.85053268538915
H        22.07786245668897    0.47436599529185   -7.24194501564359
H        20.39333593996696    0.84199598063022   -7.67920016716837
H        20.73519620429643   -0.10550020127598   -6.22786873522746
C        17.46446140262229    3.76079957885966   -4.20053997077932
C        16.40427259488406    4.19132441859625   -3.79539834985050
C        15.18295832896559    4.70520059775694   -3.29802045186566
C        14.01762577669212    4.66337040839437   -4.07029372197317
H        14.05263406918585    4.22916951968056   -5.06033250483893
C        12.83429269889928    5.16999822269172   -3.58330579067152
H        11.93021268840252    5.14086390722725   -4.17237027376324
C        12.77581892547770    5.73638523250758   -2.30981583104167
C        13.92799156269072    5.78502742732881   -1.53458821098045
H        13.91609548826993    6.21772762329168   -0.54555790090517
C        15.11463558951285    5.27410175949718   -2.02705602086230
H        16.00832882607875    5.31404181013063   -1.42002891843395
C        11.42818262587865    6.79341780984499   -0.65493235305145
H        11.67054845028413    6.08110614760671    0.14162410026077
H        10.38496777696847    7.09293735294965   -0.56178761469845
H        12.06694244493301    7.67811326190551   -0.55419392182040
C        19.88722859227097    2.98463394957255   -3.06469552256479
C        20.21981108701063    2.97042770136078   -1.89651289794998
C        20.62789368848413    2.93806696326868   -0.54178884647909
C        19.73126340667390    3.27167088565403    0.47904061126774
H        18.72101194136290    3.55625687835377    0.22015287323698
C        20.12545772075337    3.23783803364492    1.79635832514819
H        19.44073650923931    3.49306467943996    2.59062350133773
C        21.42753212229190    2.86976032818409    2.13899852175308
C        22.32649034250326    2.53704589728451    1.13345684312585
H        23.34072092477130    2.24817734942019    1.36526709271773
C        21.92625474340447    2.57252642847613   -0.19012489868488
H        22.63274036119895    2.31132356268939   -0.96707704980538
C        23.00380267629105    2.50455573009030    3.88683871868249
H        23.24677475948748    1.47783708534467    3.59066404824693
H        23.00340099188593    2.57254097687956    4.97398306901978
H        23.76223934675950    3.18532416147612    3.48408990374663

