65
CSD_code = YOLQIA | q = 0 | S = 0 | Stoichiometry = C18H42P4Ru | MND = 6
Ru        4.14076392154112    5.46074898984755    3.63021382743374
P         2.83542242987411    4.59527343426751    1.96115374750187
P         2.39432175800990    5.72300237718097    5.10186465465607
P         4.21614291987962    7.63425952356954    2.90345920984314
P         6.10246877473916    4.54649772335879    2.80577230250189
C         4.25983372046289    3.68325122067550    4.61591590557173
C         4.35902207940765    2.66458415805693    5.25807322493615
C         4.46582268428192    1.42158790810165    6.01491284573727
H         3.75152020728439    1.41434254941866    6.84130888469320
H         5.47049566181359    1.31364805974435    6.42875402729561
H         4.26039033214451    0.56070575868196    5.37362158169281
C         5.33946436350998    6.17500599398600    5.11243888668650
C         6.05251468368323    6.57818168746815    5.99822687958691
C         6.91115999641355    7.05958304284186    7.07539491839732
H         7.55694367258555    6.25515620648539    7.43376309142247
H         6.30970550905788    7.41778790630094    7.91427761499042
H         7.54333642949530    7.88143448211883    6.72874171227304
C         2.43740374207233    2.80083971770574    1.99632027090036
H         1.82225245742581    2.52247816594035    1.13964102562789
H         1.90699241930378    2.58455102910187    2.92235649125503
H         3.35732030114061    2.22236846125412    1.99782771914532
C         1.12574716122918    5.20921678209188    1.63591345857333
H         0.69876813849873    4.68280937028820    0.78122217066001
H         1.14648366553736    6.27628955202733    1.42681279794064
H         0.50045590211481    5.03572759404186    2.50976508735934
C         3.45730908132520    4.74180981854483    0.23235455960540
H         4.43841200773535    4.27706491079850    0.15427424014668
H         3.55864905987147    5.79875430024189   -0.01525542806605
H         2.77136014416543    4.26701755402570   -0.47023677599013
C         1.28775461294818    4.27686725772090    5.35802966760839
H         1.90981602449827    3.42141724653113    5.61405079514831
H         0.73437709437745    4.05285658824103    4.44801306085568
H         0.58543301017322    4.48710281002369    6.16529730882172
C         1.07564826990902    7.01345234700452    4.96192108383217
H         0.52678359568197    6.88029936088781    4.03084740863906
H         1.52048294061562    8.00654488402324    4.96515424314124
H         0.38509738727135    6.92808384531574    5.80132877401616
C         2.88443832080395    5.99145197303355    6.84205506775147
H         2.01036142390117    5.98596536861909    7.49448555686583
H         3.41573228751155    6.93768936717356    6.92558507241364
H         3.57086223450819    5.18934441331746    7.11032207797064
C         2.88290496105092    8.40645286220740    1.88478741446856
H         3.10555142314848    9.45870189318555    1.70531505076174
H         1.93134160065876    8.32426207251970    2.40774433269666
H         2.80888829543840    7.89036796547587    0.92825254578308
C         4.31748982667223    8.90962048000878    4.22283144240906
H         5.27395585707066    8.78687884591862    4.72767825636471
H         3.52969801886929    8.75249950373041    4.95651512558938
H         4.23844843992547    9.91103050316649    3.79798179274824
C         5.65044753088320    8.22470291483050    1.91865173455950
H         5.57481028562952    9.29864248637167    1.74344837597434
H         5.69127499551371    7.70142688690675    0.96476820619202
H         6.55421114948191    8.01066876458175    2.48767193431855
C         6.04757432865807    2.80363808406655    2.21183276876643
H         7.06458805965515    2.44622118002452    2.04788421959478
H         5.48999483859132    2.72601895826227    1.28040300342013
H         5.56516689392341    2.20148305589055    2.97929676951099
C         7.14250800471305    5.22889821904262    1.43340934976775
H         7.92419844282934    4.51449802100399    1.17457351585232
H         7.60560429278692    6.15591800931602    1.76379062194723
H         6.53501161171159    5.43099985850137    0.55275685043365
C         7.43285107057144    4.34748276945363    4.04473438447405
H         7.01202748642015    3.82965522536200    4.90461719623803
H         7.77072443804465    5.33119715583045    4.36444354796599
H         8.26255772094590    3.78088054426977    3.62033251071362

