86
CSD_code = YOLSIC | q = 0 | S = 0 | Stoichiometry = C36H40N4NiO5 | MND = 4
Ni        4.55964100892865    2.89369879469719    1.66416887651786
O         4.59751957673157    4.17080841231644    0.34728774094037
O         2.20310728449734    9.09046518042311   -0.05614745072197
O         2.98382253384603   -0.59485138154331    5.33189076884180
O        -1.00260578311350    1.79361133848225    2.36054704744215
O         5.01674810583884   -0.51769953081626    3.55284949732245
N         3.64627271301941    3.95917748356052    2.84015629053450
N         4.42415845472081    1.61051618870718    2.94054208542111
N         5.57977479251013    1.54237779101620    0.71438695821241
N         4.50689917265298    4.33142741872269    6.23144013360510
C         4.01026672821592    5.31980206201996    0.28883297266850
C         4.07835482601516    6.10467882905527   -0.91271696772705
C         3.45796948933465    7.32453509189535   -0.94005381752756
C         2.75135522270076    7.85602900068321    0.15705114438113
C         2.66683567453553    7.12844174635720    1.31143796933007
C         3.28644526959945    5.86142035096592    1.39339578984925
C         3.18686196875310    5.14904699332697    2.61360948580978
C         3.56787467585052    3.43003130828379    4.20316684997694
C         4.75890359749611    3.92307424830861    4.99725931056349
C         6.04090789573040    3.91789368156509    4.45401274734730
C         7.09407018084824    4.34057177802016    5.24448565073113
C         6.83141269300839    4.75600182402721    6.54190821516297
C         5.51764371647361    4.73373704616743    6.98205930023632
C         3.62193092334758    1.88707401854218    4.12177145601686
C         2.25299236614946    1.24855849920203    3.99890971569251
C         1.28480802350987    1.85438624241667    3.20685395918272
C         0.02610305586859    1.29283896041149    3.11648465825479
C        -0.25909405621833    0.13872187431417    3.84312587810413
C         0.69517733210126   -0.50963809957434    4.60468824357776
C         1.99244732472203    0.03964167460690    4.64811690722197
C         5.01130258971051    0.43796550722470    2.76854199691592
C         5.70530312176943    0.41413392249145    1.44113072134404
C         6.40749006297908   -0.69132352223008    0.98671381996030
C         7.00543362280250   -0.63908162418975   -0.26019018583364
C         6.87513724144242    0.52304057907024   -1.00553578237234
C         6.15626848304838    1.58677734078914   -0.48312704563231
C         4.83046892428572    5.56203347694824   -2.12064752599565
C         4.17697085799759    4.24398523126160   -2.56196499467653
C         6.30114460613200    5.34526910258864   -1.73498506646661
C         4.80167796300365    6.51650743657251   -3.31843490560742
C         1.49082425828104    9.68571292761422    0.99850413930956
C         0.37286316334099   -1.78787746390590    5.36667486072266
C        -1.09660334581264   -2.19925800893438    5.23348405949103
C         1.23708545315316   -2.93247313133737    4.82000299863152
C         0.66917281358751   -1.56983401536530    6.85625377588933
C        -0.75658262952441    2.94275999594984    1.59237521240323
H         3.81559509192385   -0.56983602102512    4.79909553147107
H         3.48381705570393    7.94522479153284   -1.81945613694340
H         2.13598064859754    7.48951313761589    2.17837172848715
H         2.67477179490168    5.65891191840568    3.43203931338280
H         2.65732494722123    3.76534657159532    4.71409615474405
H         6.20075325076819    3.58945717993730    3.42681413380004
H         8.10270053235969    4.34703878614359    4.85728460468145
H         7.62458290076974    5.09163274614909    7.19122321277315
H         5.25330901374742    5.05428940721102    7.98109281856237
H         4.12214483582993    1.49167819057980    5.01817104694870
H         1.53700385209828    2.75015484065617    2.66174309027310
H        -1.26218941012249   -0.24146586638350    3.76020336890605
H         6.46186221305629   -1.55961538209786    1.62459589369200
H         7.55881494118852   -1.48296008872780   -0.64373944696396
H         7.32262687679607    0.60997589837759   -1.98292824878201
H         6.03963242829440    2.50329493740039   -1.04460887233446
H         3.16519367980518    4.43433467348806   -2.91457147141623
H         4.74531163447185    3.79470383645605   -3.37421618256231
H         4.12102757832074    3.53875567651143   -1.73898814956204
H         6.84183617863150    4.87943650811222   -2.55680328885372
H         6.76934802344902    6.30242292419906   -1.51391209905702
H         6.38500793394552    4.71701840334045   -0.85412165278057
H         5.35342840278035    6.06823875011664   -4.14244969350271
H         3.78386352118851    6.69670572279519   -3.65559303295727
H         5.27201282533576    7.46684984695222   -3.07800593550398
H         1.15319442500633   10.64982766064045    0.62182842979158
H         2.12791691434983    9.84297231223392    1.87545367010324
H         0.62110516345173    9.08520292391049    1.28589353088917
H        -1.35379815691530   -2.41753137885036    4.19967280258596
H        -1.75831188997305   -1.42333722382913    5.61114411217611
H        -1.26767459757311   -3.10088144807328    5.81853172232246
H         1.04994569073201   -3.06864446738897    3.75655809331797
H         2.29074260241917   -2.71924555712836    4.96453411794922
H         0.99693250274307   -3.85936511629420    5.33669148213585
H         0.05571510843382   -0.75934334825462    7.24495271904414
H         1.71344698811762   -1.31780905054048    7.00391517477923
H         0.44607928685307   -2.47474365243477    7.41767436679399
H        -0.51427298514713    3.80657518246305    2.22191100266781
H         0.05443410045245    2.78463317610021    0.87301052418537
H        -1.68117785787865    3.14226601738849    1.05237406970086

