81
CSD_code = YOLVED | q = 0 | S = 0 | Stoichiometry = C38H32N2O8Zn | MND = 5
Zn        1.50905050721964    8.26143457846163    6.62815696968594
O         0.68983464386142    7.01321842735300    5.37719321796670
O         3.23429024445289    8.03216825576143    5.76353724604631
O        -5.79214333925521    4.78337167342866    2.85393445274223
O        -5.30785513622099    4.07990027976984    0.35429438042479
O         9.18336086479935    8.75396221215287    1.13586375007943
O        10.66921174615582   10.30019275513116    2.67676514004350
O         2.05072262368297    9.91610525882666    7.77486803233313
O         1.07206147938234   10.06901025668086    5.82700863995350
N        -0.33766106254378    8.17061700283990    7.68120418088349
N         1.96832502460357    7.04879166108653    8.28493477284168
C        -1.12270798693468    6.06320680893791    3.51672449072749
C         0.15989795037613    6.29458434456675    3.20247984443025
C         1.10065390519617    6.84491346754566    4.19016002977846
C        -6.09754565482366    5.15271705698596    4.17326698701439
H        -5.53398164810229    4.55790562327530    4.90056716272145
H        -7.16142165997200    4.95433310803157    4.29426280871042
H        -5.90591220256753    6.21688579115206    4.34941130109043
C         2.39373826896684    7.13796180420841    3.73886765217282
C         3.37261090197005    7.74778804304346    4.53646040523581
C         8.42560996627012    7.94154572328406    0.27681164634085
H         8.20364376999114    6.96963760372027    0.73091616983961
H         9.04457868151285    7.79197539322128   -0.60650550251112
H         7.48879688281805    8.42747849884099   -0.01662541788134
C         4.65673220178218    8.06044381760256    3.89281769246647
C         5.60849250212512    8.75400689848184    4.53452492038101
C        -2.16540046628524    5.54534085064425    2.65764979360892
C        -1.94688390931343    5.16487478693987    1.33627707145920
H        -0.96386225472816    5.24562558677553    0.90232426308538
C        -2.98692969329834    4.67728282806566    0.56744001145922
H        -2.80815036141916    4.38316715637429   -0.45880055370157
C        -4.26541503814991    4.55554825706484    1.08594124364428
C        -4.50856530440618    4.93464945840636    2.42147002046223
C        -3.46036439175487    5.41933758327149    3.17994192577655
H        -3.62429595911880    5.71520360663925    4.20456752280706
C         6.91035835995770    9.14269850735052    4.03765058917995
C         7.72279307441158    9.95435110084730    4.82599995347315
H         7.37126421138206   10.28582489802872    5.79114945192416
C         8.97165181163065   10.34535744892218    4.38039988345594
H         9.59459321535077   10.97907080736229    4.99844373457476
C         9.44564148644607    9.93705065058951    3.14523121981524
C         8.64038642817252    9.11192337798617    2.33316771804002
C         7.39332218656593    8.73046546278388    2.78862507619287
H         6.77205694529608    8.09719323391185    2.17833723040217
C         1.63081637063156   10.60165352669905    6.81635110553513
C         1.77318768112620   12.08713117558485    6.85564562196351
C         1.32179078608192   12.85952788373521    5.79151146546976
H         0.87545911564306   12.36099528786610    4.94449066416070
C         1.45263377070780   14.23537630551692    5.83146444815846
H         1.10326816433780   14.83634259784767    5.00423755292890
C         2.03458774812529   14.84516301248248    6.93164727172302
H         2.13676125737434   15.92079536001458    6.96145157630017
C         2.48744148960915   14.07782945261148    7.99337305249501
H         2.94207995959626   14.55658394892727    8.84920515833913
C         2.35794939857514   12.70186101373238    7.95699201510839
H         2.70391968046390   12.08199680616769    8.77047171697088
C        -1.48206222408825    8.62139138257770    7.21080845997234
H        -1.41486506026533    9.19368297354548    6.29682854561475
C        -2.69322397860762    8.37946041172824    7.84427102662569
H        -3.61336735230012    8.76504442858443    7.43450325870583
C        -2.68661627389898    7.62728689016358    9.00797623333629
H        -3.60787765298756    7.40647790722957    9.52733427670027
C        -1.47994890029145    7.15615351030993    9.49799920549248
H        -1.45551706637031    6.55220456760131   10.39103869803860
C        -0.30969660483928    7.45514412283907    8.80169377158547
C         1.02688916640343    7.00918593168378    9.22606000455825
C         1.31516991662165    6.59443380002048   10.52473796074922
H         0.55340727513608    6.59449120174684   11.28802109572428
C         2.60953998214625    6.20979975464703   10.83210598922580
H         2.85972765324390    5.89199665100170   11.83376458606813
C         3.57428742801471    6.24920324284851    9.83904269132442
H         4.59340225168641    5.95934531990003   10.03967618546401
C         3.20156838481155    6.68480145094656    8.57522042023674
H         3.90911746550308    6.75318731685062    7.76251796443332
H        -1.41745488687015    6.29606897231775    4.53354762191058
H         0.55229430552984    6.10714761258577    2.21469169116319
H         2.62991150670332    6.94152418394127    2.70423885642896
H         4.77802410368116    7.71742225939284    2.87624702701725
H         5.37475298798607    9.07549640488788    5.54267525373123
H        -5.00345738803921    3.86375109376517   -0.53563390620566
H        11.10761572337199   10.86182029136376    3.32777430371808

