82
CSD_code = YOLVAW | q = 0 | S = 0 | Stoichiometry = C30H45FNiP4Si | MND = 4
Ni        6.29850194515604    9.63146305960358   14.27015386869738
P         7.52874613247174   11.45331744239471   13.96792103512348
P         4.23111957151748    9.94374157250293   13.52164927448099
P         6.26412530147294    9.05217223123791   16.41310786182041
P         7.21824773112337    7.97950150537963   13.09753350934101
Si        4.71790221072966   12.49075731676260   16.24328596046859
F         4.03612801712396   13.72937255884574   17.10804988092736
C         7.45205782873834   12.83495553806766   15.19910767708331
C         6.07354880789214   13.47282579937419   15.32229427714417
C         3.39671317283444   11.57838575426040   13.77234118651254
C         3.18831304922361   11.94636963336678   15.23631517670353
C         5.04975694902562    9.86990458381869   17.54808209748708
C         5.26203243569336   11.37216820795723   17.69331134159118
C         9.36468883636650   11.27814889935939   13.93502035232139
C         7.35413450019616   12.43398898946614   12.41563769478215
C         2.86615354203915    8.83284422086214   14.07534882172977
C         3.92325830395561    9.80890819331447   11.70799690807424
C         7.77587434268049    9.19949368169849   17.46092150899077
C         5.84464061294303    7.30858241650607   16.84298222781043
C         6.10557496606310    6.77251390907667   12.29056525720968
C         6.15354868642413    6.40572190717270   10.95151991358044
C         5.23189029191261    5.50407414792673   10.44599513399768
C         4.26150142715375    4.95579488510310   11.26736459743323
C         4.20945126459666    5.31480966032552   12.60547391804000
C         5.12133016986463    6.22210704247539   13.10810551441732
C         8.28068484571945    8.43564527567098   11.68020722282083
C         7.71623555920518    9.31259946891672   10.75627224803139
C         8.43755421200121    9.74763141012348    9.66197665214811
C         9.74589815294508    9.32315221622953    9.48603155341642
C        10.31814692676468    8.46059961804394   10.40528021683783
C         9.59147649814268    8.01400741966427   11.49648095266070
C         8.34150075232670    6.83357388718072   13.97512888428528
C         9.30023446701211    7.43358922291198   14.78772728156237
C        10.19721737009267    6.66805234976554   15.50668784368497
C        10.13601741280258    5.28493046111425   15.43238636478756
C         9.18093642136954    4.68060542129671   14.63253455143161
C         8.28819080156625    5.44743360947897   13.90255383920108
H         7.76960239813017   12.43452192137847   16.16483618776963
H         8.18269321560572   13.59292954709683   14.89589415561427
H         6.17709952125834   14.41187740640628   15.87192520497486
H         5.72100836537618   13.74234551213607   14.32579180598974
H         4.00542718161670   12.33824853640066   13.27658723941387
H         2.42845884294072   11.54102862976685   13.26101644017282
H         2.49380869934849   12.78909578309075   15.28318976394186
H         2.69126414387773   11.11640670919074   15.74031545826555
H         4.04777556313978    9.66606363456043   17.16377401803957
H         5.13469314478724    9.38934741087761   18.52897804924531
H         4.69024698505880   11.71858462758089   18.55800065978076
H         6.31063993909838   11.55751992807073   17.92968844878963
H         9.84339309866994   12.22840045786975   13.70191231704015
H         9.71544321944150   10.92833766725015   14.90442548391411
H         9.63621442487933   10.54242234414526   13.17905724716062
H         7.88922103666277   13.38009549384298   12.48832267905834
H         7.76381831231204   11.84840554956753   11.59508105596185
H         6.30327672120080   12.62365863374904   12.20810655557446
H         3.02342513521042    7.85189291876251   13.63161922717869
H         2.88505883669179    8.72490218212150   15.15762577609945
H         1.89659257985890    9.21969956111293   13.76388367527971
H         4.26763861122144    8.83503026966725   11.36248934735108
H         2.86313872832148    9.91716696200644   11.48229158597292
H         4.48196639129246   10.58330560684386   11.18532685546780
H         7.53233242994406    9.07765405761882   18.51574319195973
H         8.47775674773725    8.42410807333746   17.16121767020250
H         8.24851795263425   10.16705956779972   17.30559743000310
H         5.91553738266421    7.14242865671051   17.91714472988614
H         4.83211508584790    7.08579476045769   16.51124100122489
H         6.53562368723105    6.64212460401437   16.32819030876029
H         6.90906008618670    6.82101044782054   10.30017799470194
H         5.27414089019216    5.22512036938572    9.40241850419149
H         3.54703819724698    4.25157015082851   10.86634376505358
H         3.45412074157671    4.88856471940053   13.25133384929468
H         5.08819395162926    6.52761550081286   14.14567172896797
H         6.70051867742680    9.64634087432069   10.92052911894231
H         7.98701699967928   10.42135865727899    8.94630921447446
H        10.31686686661542    9.66604870072256    8.63536975633433
H        11.33822030063348    8.12997048559467   10.27071210957427
H        10.04881457932035    7.33722967685434   12.20368719330463
H         9.31983553997916    8.51406669151497   14.84283275753674
H        10.94257822982839    7.14376768732649   16.12918952113524
H        10.83046933095089    4.68044812743925   15.99772684815441
H         9.13225957653017    3.60247036375322   14.57337414353957
H         7.55144413299088    4.96381701628341   13.27739731806257

