74
CSD_code = YOLVIH | q = 0 | S = 0 | Stoichiometry = C33H30N2O8Zn | MND = 5
Zn        5.90159344257867   12.52920250490326   -6.32153718340031
O         4.66702831205432   13.48353649074175   -5.16366953175571
O         5.44526208476399   13.71230778288422   -7.80624093633222
O         1.75902009147824   18.44394983041248   -0.20714957294154
O         1.87762294693540   16.87243048731842    1.93788914550264
O         8.14178404760679   15.91506149886257  -14.22535186763440
O         7.26613507661140   18.39660567847749  -14.47776785196686
O         7.60579540218718   13.35932903150361   -5.60436176387327
O         6.87186787686873   11.47002363299636   -4.79925348541586
N         6.93427175893409   11.37029656533115   -7.77768425051795
N         4.65036568792917   10.85415713622158   -6.56847949108544
C         3.77360818439056   14.83324743786257   -2.92360336435484
C         3.86995792733213   15.43195301391727   -4.12004723619631
C         4.39983707617541   14.71606941375176   -5.28992602361698
C         1.68691101849027   19.31063034061352   -1.31052289625135
H         1.25147137189571   20.23446300482031   -0.93233552013044
H         1.04488707270719   18.90274734388398   -2.09766085529614
H         2.68004318807698   19.51886911229993   -1.72055581421591
C         4.55501408191194   15.45305779962926   -6.47214471402086
C         5.11098101417537   14.92337141298515   -7.64408786371372
C         8.64443163730137   14.60829821619263  -14.12391912148541
H         9.30536335964821   14.49651001616932  -13.25739379652866
H         9.21615047270368   14.44271061283326  -15.03581305462257
H         7.83879065937859   13.86832654198488  -14.06319717447853
C         5.31732080975761   15.85474714307018   -8.76390111512819
C         5.96028684661163   15.47019966862440   -9.87562467558376
C         7.67140360168809   12.42762652851986   -4.77040882417972
C         8.75330630730379   12.46779291868337   -3.70837855475013
H         8.36824124565327   13.01731309479966   -2.85208934889860
H         9.62875720957517   12.98483303769818   -4.08978814281047
H         9.00431136417004   11.45880800628149   -3.39518890995883
C         3.27904042519560   15.39194564185834   -1.68468972247891
C         2.75820241839751   16.69031633192649   -1.60135408191801
H         2.72369772087551   17.29729344739638   -2.49041016867523
C         2.29203208578982   17.18670772119086   -0.40331850330507
C         2.33562246339880   16.38921144618834    0.75547574374298
C         2.84927738778523   15.10512111795189    0.67748162404442
H         2.87544450433401   14.50783853147897    1.57476807096185
C         3.31317501048318   14.61416717020981   -0.52712347833344
H         3.71209966280111   13.61231932313146   -0.57536352552833
C         6.26524968752026   16.26808694224322  -11.04336799554727
C         7.04581657155811   15.69666276761495  -12.05783000829071
H         7.38540334671262   14.68124526169066  -11.92434878885197
C         7.38503624135485   16.39732822282122  -13.19944241379935
C         6.92637674063108   17.72157433711915  -13.34757268924925
C         6.15126756436489   18.28760314141388  -12.34884238819473
H         5.80175722002578   19.30474344546975  -12.47124792467739
C         5.82257023588782   17.57766240605453  -11.20947381315386
H         5.21578159748194   18.04662146657288  -10.45245376005918
C         7.97318065319311   11.79668111150022   -8.46564398003382
H         8.38538365576531   12.74217413172122   -8.14396018611859
C         8.50310822727947   11.08165986881673   -9.53062721870847
H         9.35635836003523   11.45658106553056  -10.07356136868321
C         7.90415571036411    9.88143533808689   -9.87867241570798
H         8.27911277463633    9.29812145074406  -10.70715880400284
C         6.81207953663167    9.43828222006001   -9.15148119941880
H         6.31867918394588    8.51727895689844   -9.41840776622472
C         6.35091612026348   10.21748367120913   -8.09137251630234
C         5.19901506318614    9.85158230566880   -7.25225602598478
C         4.71654953506254    8.54894622954333   -7.14629715765602
H         5.18795094551652    7.73912880999754   -7.68014921231406
C         3.63757953618794    8.30162592679440   -6.31409742890849
H         3.25145086772586    7.29851486193598   -6.20658982499729
C         3.07244963417317    9.35714999574668   -5.61791150517818
H         2.23269833824751    9.20465610412579   -4.95881636609979
C         3.62281173099098   10.62116542097209   -5.77610455327395
H         3.23875328879857   11.48169390063375   -5.24921787614128
H         4.11424647103011   13.80578099263009   -2.87178763591987
H         3.57958574871514   16.45968558419468   -4.27937797871264
H         4.29523826184217   16.50054196739379   -6.45847805202843
H         4.95079415200970   16.86105784019413   -8.63043671079386
H         6.30297583564645   14.44211675585334   -9.90025717176228
H         1.56846188578322   17.77666294353600    1.78852741987398
H         6.88849242142639   19.28416851950472  -14.44665684597393

