55
CSD_code = YOLXON | q = 0 | S = 0 | Stoichiometry = C20H23N6O5V | MND = 6
V        -1.31092655666823    3.80100417848014    5.94077244870713
O        -0.00498863210208    4.59041136957391    6.02795443103486
O        -1.93266077079650    4.10765699485924    4.34818282230721
O        -1.06861721874781    2.55533200479700    7.33110370591571
O        -2.51227257092774    4.44480910633101    6.82824520432662
O        -3.25478275242574    1.88121019679326    5.52640785675570
H        -3.90500088758865    2.48469972120536    5.14454046056996
N        -0.33377716238723    2.27825340391728    5.03596719843752
N         0.06300413391478    1.29568630725054    5.84649080507650
N         0.48859921285449   -0.59543595782425    7.95086924092196
N         0.67731249028170   -1.11960833500921    9.16432921851979
N         1.38208751349958   -2.88024618632250   10.50347873447492
N         1.44117897947777   -3.03550033834332    8.14797844272246
C        -0.31913555884189    3.24845351509072    2.85112760892123
C        -1.36320032405842    4.15769273173426    3.17796627665904
C        -1.79424252226795    5.06657798800178    2.19823528643305
H        -2.58782641622336    5.75415838786068    2.45493031650700
C        -1.20535529018870    5.09077213789806    0.95312514167801
H        -1.54327738525745    5.80571594134295    0.21746251050219
C        -0.18187691000141    4.20177579735120    0.63426287560730
H         0.27041217530202    4.23007459466064   -0.34511114760259
C         0.24811016165812    3.28975188117269    1.57094620658498
H         1.04106210225281    2.59539803675548    1.33327972271931
C         0.09445901574127    2.28077110877568    3.81804993191839
H         0.79382551876425    1.49871929388723    3.51786027225737
C        -0.35592733694364    1.53126934019447    7.06493288644601
C        -0.00290755648138    0.61266084658743    8.14333732187658
C        -0.14056677957647    0.87811519761709    9.53036411420999
H        -0.50693150932178    1.78328569674648    9.96912026523972
C         0.30928188968598   -0.24850268884932   10.16360530782871
C         0.40641246704813   -0.54100111616008   11.61242056729174
H         0.04851798684023    0.31711242730700   12.17546922462412
H         1.43666100071166   -0.75326334077404   11.89031508962744
H        -0.18721104011768   -1.41655359725909   11.86739117989432
C         1.18993184188359   -2.40215928723369    9.28183150685336
C         1.87956160700675   -4.10837449595557   10.60183743354610
C         2.09633517903339   -4.64074015332440   11.98087100059039
H         1.77201707948005   -3.90748178493642   12.71292358952137
H         3.15142656942564   -4.86068469511599   12.13420257172716
H         1.53657097070317   -5.56392876881560   12.11921349301383
C         2.18142694891633   -4.85212892415777    9.46759339330057
H         2.58695675452185   -5.84823178040650    9.54374108750552
C         1.93809690361089   -4.25993791516470    8.22969360970963
C         2.21899829927548   -4.96230397876203    6.94330990868481
H         1.95919321434492   -4.30931791983182    6.11618280552773
H         1.63687760367086   -5.88020732640092    6.88146507522489
H         3.27324617212597   -5.22659999355621    6.88274122721408
C        -3.15947145657193    4.79097941614395    7.97034648506544
H        -2.84311692350115    5.78761747262078    8.31582840584757
H        -2.90791541337448    4.04745200079241    8.74610526373114
H        -4.25045017804735    4.78707432661368    7.82297353241350
C        -3.13024342057060    0.75833420708062    4.67834231880905
H        -4.07762518071550    0.20941456009030    4.62013563261331
H        -2.36918854727422    0.11223599830535    5.11602541129368
H        -2.81796749103338    1.04623239642249    3.66762471878336

