119
CSD_code = YOLZUU | q = 0 | S = 0 | Stoichiometry = C60H50N6P2Ru | MND = 6
Ru        4.07804530325566    7.46291593388853   10.19675955589383
P         3.36883417866901    5.27022218918883   10.19238572420967
N         2.39272837696668    8.06522714448371   11.28849415561116
N         1.62034610507491    8.24184008387244   10.25738311331162
N         2.31204947142507    7.96702447038709    9.19229916747739
C         1.88978502267810    8.47713266929228   12.50820585753374
C         0.95091909721845    9.51073055079958   12.59076472170933
C         0.48026755695256    9.92372840774340   13.81903761051583
C         0.92293334299960    9.31558962697059   14.98321612232749
C         1.83864112967281    8.27858870617298   14.90840684942095
C         2.32002011820233    7.86212431171058   13.68487337497329
C         1.61474026009330    7.96657791265110    7.99778587153871
C         0.26460037099517    7.60478880006070    7.95653620334330
C        -0.40689157300265    7.58088319310534    6.75192188789320
C         0.24467333113802    7.91854091397854    5.57577155364497
C         1.57694851346265    8.29834247512908    5.61378030126743
C         2.25839396126554    8.32542989556625    6.81271170541900
C         4.02104080502784    4.18664770690879   11.51290499418529
C         5.40009254129348    3.96844867397006   11.51114465349558
C         6.00184741764776    3.25520521142142   12.52838651107491
C         5.23461414105445    2.74464117845736   13.56352749903774
C         3.86416481199664    2.93717908435715   13.56198404399147
C         3.25682648164152    3.65486293683049   12.54478707985022
C         1.56208334991048    4.98558803682716   10.24427718648199
C         0.85117250089942    5.45850088234599   11.34693760124721
C        -0.52570918432769    5.35226139707416   11.39613029798825
C        -1.21435709550949    4.77512182935681   10.34164982872636
C        -0.51672210640845    4.30345011509803    9.24295753566654
C         0.86210034891825    4.40948892865209    9.18940521280569
C         3.82423416259465    4.34099887136585    8.68699943431266
C         4.32211893860460    3.04357502289695    8.67932303850557
C         4.64499898454888    2.43604671311201    7.47835652223291
C         4.45623864248880    3.10430740355651    6.28045746914932
C         3.93688428679474    4.38818353644428    6.28073174205477
C         3.63280643290109    5.00622589638417    7.47792439721342
H         0.60892596457583    9.97880430752166   11.67976596721456
H        -0.23696941326033   10.73026470242610   13.87133039604908
H         0.55403560192254    9.64653634230815   15.94257050465181
H         2.17846547824008    7.79086140062079   15.81091041798927
H         3.02895213982576    7.05060116149727   13.61909540490016
H        -0.23035247936870    7.34010753233678    8.87900369164945
H        -1.44754988706932    7.29086333397630    6.72798892755018
H        -0.28434975568559    7.88969523661707    4.63480684259603
H         2.08594053411504    8.58040905225714    4.70331277451019
H         3.28627082433091    8.65182685324898    6.85733299239147
H         6.00050905371916    4.35896895292510   10.70009467134691
H         7.07088217548924    3.10117852349429   12.51715879808608
H         5.70412967117152    2.19332655986203   14.36469673228133
H         3.26008513336718    2.52871867691439   14.35947141532584
H         2.18517103456533    3.79010210396731   12.55504888488050
H         1.37922623870860    5.92296417062190   12.16782505507755
H        -1.06075659435005    5.73061072941396   12.25516819915278
H        -2.29127900555411    4.69888043044831   10.37448676714030
H        -1.04807527767076    3.85592642244840    8.41568563435756
H         1.39001821438193    4.04514189191365    8.32043756588303
H         4.45935207843401    2.50592412131266    9.60673248036881
H         5.04307108695676    1.43155217033847    7.47944601192075
H         4.71193162136529    2.62397777978715    5.34766696565331
H         3.77724599861904    4.91195619823863    5.35009403298880
H         3.23560544270466    6.01290355572269    7.48882930616911
P         4.78735131346488    9.65570859089775   10.20121870237711
N         5.76332441161677    6.86049489167537    9.10494902763017
N         5.84415252269326    6.95869179779468   11.20120406485989
C         4.13469082724614   10.73918573677556    8.88081006535660
C         6.59418858336563    9.94014268905489   10.14929765403715
C         4.33153726513033   10.58431358080423   11.70686968937311
N         6.53573371198379    6.68389750083630   10.13602855717032
C         6.26623122581408    6.44847939672867    7.88523707830237
C         6.54170822000837    6.95928344976868   12.39558699967176
C         2.75562694050067   10.95736071729173    8.88296924062021
C         4.89862771830834   11.27103987579015    7.84877874069064
C         7.30493447614502    9.46730366074205    9.04649686313480
C         7.29423282863420   10.51652615961417   11.20395714873718
C         3.83374506633167   11.88175837080905   11.71482405584475
C         4.52327847402361    9.91889988657212   12.91578964059511
C         7.20495216488555    5.41474616855064    7.80271832901597
C         5.83603411740194    7.06341554094438    6.70852365816637
C         7.89187480340134    7.32104441193151   12.43647770820838
C         5.89831572211386    6.60062127842819   13.58085905418820
C         2.15362756402642   11.67077974716738    7.86598808527555
H         2.15545794148871   10.56704883268572    9.69427839278332
C         4.29104792788808   11.98895047412048    6.83188393339163
H         5.97027966909348   11.13588727118824    7.83831713853732
C         8.68177652549264    9.57402806213216    8.99689613487150
H         6.77673812534086    9.00283789856480    8.22571815542591
C         8.67301443561089   10.62300088719562   11.15002362751849
H         6.76639272105925   10.88103239616581   12.07289356629245
C         3.51133875591538   12.48919362574614   12.91597545974443
H         3.69685782880824   12.41974072100947   10.78758927698340
C         4.21964594958157   10.53684440281925   14.11316909020212
H         4.92065813912776    8.91233306740972   12.90467861418454
C         7.67544478829430    5.00159101023105    6.57443767811276
H         7.54694061879097    4.94668353032946    8.71371325720776
C         6.31723005471276    6.64677521901928    5.48497252911871
H         5.12723392361722    7.87504416178641    6.77426057304825
C         8.56368437442248    7.34485450842861   13.64091168627036
H         8.38660520013447    7.58573046509621   11.51390161672424
C         6.58008838145902    6.62761459624132   14.77960612684591
H         4.87036029573905    6.27443588823916   13.53655725797618
C         2.92060427420869   12.18152943657692    6.83075177822131
H         1.08460303749255   11.82478233898876    7.87752362174200
H         4.89492047830816   12.39733964203895    6.03422346566958
C         9.37049586362492   10.15144991974393   10.05117680578947
H         9.21673609293601    9.19561189383371    8.13784019926529
H         9.20445982781503   11.07050082718125   11.97723514372621
C         3.70044242429410   11.82078221813531   14.11373724135378
H         3.11324139986411   13.49364400717495   12.91505803363221
H         4.37912889380087   10.01277141665888   15.04364013030717
C         7.23274404143594    5.60960244880989    5.41020991121599
H         8.39268862357125    4.19507302767419    6.52218634996090
H         5.97747912470638    7.13456724336835    4.58246738246000
C         7.91243475982312    7.00721171510043   14.81722894628567
H         9.60434320117823    7.63488373696265   13.66455573214157
H         6.07132720933755    6.34554053664551   15.69020228334553
H         2.45085053156763   12.73268182232701    6.02962487455127
H        10.44741061549270   10.22760358456845   10.01826919546954
H         3.44442814709915   12.30076079109267   15.04659800521025
H         7.60171072967360    5.27865746018223    4.45087881532010
H         8.44173120342625    7.03596254206438   15.75804434159937

