69
CSD_code = YOMBIN | q = 0 | S = 0 | Stoichiometry = C31H31N2NiPS3 | MND = 4
Ni        2.10850134803410    0.51805914364739    5.70742532274020
P         2.52604440285899   -1.35770103979653    4.69230116058740
S         1.90357717010857    2.40274890130972    6.96124349366715
S         1.82646802413314   -0.33403456905183    7.71621809690223
N         2.21495547761979    1.41735375638413    4.11572562556408
C         1.72028933851856    1.28989339884999    8.23045859479063
C         2.79197194207792   -2.84505419606968    5.70749677608492
N         1.52289564852091    1.63834343968591    9.49782581475762
C         1.80557204638347   -4.51568314675564    7.12745519280877
H         0.93378557402328   -4.95699062567678    7.58774041132467
C         1.36364650277753    0.65116999258969   10.54429864876872
H         1.11446138905202   -0.30483629678281   10.07691402473976
H         0.52442656733416    0.96177928925841   11.17442172589078
C         5.73904615405194   -1.34714989348999    2.12113182012565
H         6.02780996357228   -1.77141342015737    1.17095199681743
C         1.39816402740140   -1.96727699695869    3.40933779165008
C         1.52113912445028   -3.25749692620332    2.90037659595395
H         2.27658322198083   -3.92356357783707    3.29528893979615
C         6.59600223619406   -0.48333474469859    2.78167285654277
H         7.55298925748342   -0.23733713578483    2.34619848185427
C         5.05700839284565   -0.17456004643638   11.46360176188432
H         5.90379502889232   -0.50770713682486   10.86906545487779
H         4.86391685901817   -0.91857450137474   12.23341810203672
H         5.32707355389741    0.76010505068488   11.95094627282558
C         3.82896225899453    0.01462426597043   10.58262250669239
H         4.05447479764288    0.74760481158722    9.80514107151680
H         3.58347965407476   -0.92758545305302   10.08846538302919
C         6.22106882166449    0.08511557534163    3.98983083512663
H         6.88264070777654    0.77331954714413    4.49458089097539
C         1.37678092222549    3.03037157919052    9.88689946968413
H         1.74706751616364    3.65033924069298    9.06626850967125
H         1.99157734625413    3.21026478277141   10.77251144268794
C         4.18171637448925   -4.47725954215096    6.78395866259617
H         5.16132649413032   -4.89072186098127    6.97482395529957
C         4.12776273909436   -1.09557362148718    3.87372987481762
C         1.66985472888675   -3.41474763460201    6.30496905616353
H         0.69545685417801   -2.98232382806088    6.11650739934262
C         0.40336541072241   -1.12293723881123    2.93029193589791
H         0.30793464398157   -0.12924644630602    3.35086430949438
C         4.50258224361692   -1.65730736272851    2.66195363463511
H         3.82595663038300   -2.31292859615773    2.13360776605035
C        -2.32243288061369    3.64101113978203    9.38897956784939
H        -3.02995240066301    3.66532913509249    8.57374871514117
C        -1.83843376133141    3.84315550194021   11.72719677393126
H        -2.16622651868061    4.02356638640441   12.74035177683818
C         2.62591137237982    0.48729839758393   11.39572714330376
H         2.86938709837363    1.43363102495229   11.88415817973343
H         2.40746179010912   -0.24075624039706   12.17919775310744
C        -0.31149224519699   -2.83228784378313    1.40981855859069
H        -0.97309725366797   -3.16970576465469    0.62575431712513
C         4.05200466785068   -3.37331899334841    5.95888719470998
H         4.92529798290243   -2.92358459232838    5.50740048088121
C         0.66755611558667   -3.68309089806122    1.89955331516454
H         0.76514839924690   -4.68193264114123    1.49957808480739
C        -0.98831556182005    3.38263727917211    9.13351086645873
H        -0.65365608538001    3.20892383109485    8.12181079761155
C        -0.50317986644363    3.58044552987898   11.47237893310187
H         0.20589563228167    3.56083970351501   12.28863091323990
C        -0.44736775329917   -1.55542428671952    1.92893587688662
H        -1.21574198760635   -0.89647913021231    1.55340312812301
C         4.98779770309300   -0.21695553285060    4.53068278008377
H         4.65329612347027    0.24548248168309    5.46292478278798
C        -0.06771606464730    3.35217688342426   10.17431098007088
C        -2.74991065995114    3.87159827256961   10.68627362615858
H        -3.79151426384008    4.07521803321139   10.88512397314462
S         3.15750472807532    1.71388312681613    1.54176213869343
C         2.64894051705788    1.50895350054940    3.01813940870582
C         3.06306020148689   -5.04866976084318    7.36684885877804
H         3.17064357493718   -5.90739148162491    8.01296940787509

