56
CSD_code = YOMDAH | q = 0 | S = 0 | Stoichiometry = C25H25ClO2RuS2 | MND = 9
Ru        1.21370574575449    7.20210743092964   13.94596073459609
Cl        1.02994486991797    4.88889855363224   14.18256331242693
S        -5.18722165432342    5.87875197113119   10.49927612574651
S        -3.08646777131265    6.79231872370346   19.94205582842805
O        -0.51417909241630    7.02381576891705   12.86054944920811
O         0.12397449752280    7.26406809045415   15.67886709943981
C        -5.59415593375492    5.63892709977962    8.84982365580932
H        -6.61378741423310    5.44038713863853    8.58437686778232
C        -4.51254373697634    5.73510417278590    8.02941547487929
H        -4.56310681280458    5.61492622411738    6.96191955428929
C        -3.32652610458960    6.00832365080313    8.73179949670337
H        -2.36491719684388    6.11873815335743    8.26276883471127
C        -3.50961718295231    6.11765795922007   10.08967860078567
C        -2.51426152098366    6.38573963191739   11.07416644775523
H        -1.50819999125345    6.53354712305740   10.70245075580610
C        -2.72521026285966    6.44865323977531   12.40080373473244
H        -3.71004216971570    6.28028995038909   12.81051865809243
C        -1.64446629655116    6.70612445171849   13.34977131789100
C        -1.96240971570212    6.61825865492455   14.71349984975253
H        -2.96921144179351    6.32558514999049   14.96626897542201
C        -1.09680025422226    6.92359275696991   15.77656247613828
C        -1.66734522588980    6.88904816205591   17.12123884035076
H        -2.72406999976238    6.68035368904308   17.20186095981340
C        -0.92110665471050    7.08436893959332   18.22288331886215
H         0.13817579748679    7.27258037052357   18.10337602974898
C        -1.40562496226986    7.05781842999547   19.56312645799964
C        -0.67614314689096    7.23074617345563   20.71500298047642
H         0.38472310095714    7.40680655659309   20.71135050900296
C        -1.45149845135388    7.15004481802809   21.88411751865653
H        -1.05292082842669    7.25923734135861   22.87694319015109
C        -2.76650926930465    6.91812674478723   21.62287646784628
H        -3.57375678254616    6.81226569318193   22.32030674888849
C         1.09652862399157    9.74233337076658   11.55813527981230
H         0.26397334081201    9.14405285028036   11.18719432299287
H         1.73290926890024    9.99772683812904   10.71081899890071
H         0.69778252981003   10.65673471569447   11.99151754583568
C         1.87228998968779    8.95710753129481   12.57170383595186
C         2.54262018285694    7.76706121684050   12.17936588911715
H         2.51531028903509    7.45727231929304   11.14058973327979
C         3.29577385281918    7.03402034093153   13.11288920149846
H         3.84015114297858    6.15332306342848   12.78503132899302
C         3.44590075066901    7.47877649489858   14.45687135179961
C         2.74798440368395    8.63622395672770   14.83781618232003
H         2.85218319440312    9.02087727892443   15.84604041186698
C         1.97728164143627    9.37969516832922   13.90476240003471
H         1.51605379856789   10.30972943263855   14.21552214578575
C         4.31822558205146    6.72113042332456   15.43000154290100
H         4.69826693514151    5.82967537484914   14.91958677503556
C         5.51113388386387    7.57945283876266   15.86215430369023
H         6.08408537386327    7.90564137514126   14.99600737771318
H         6.16522210299017    7.00217451859837   16.51074638987618
H         5.17931194008023    8.46049304862508   16.40730210264382
C         3.49729251902728    6.25798320239899   16.63597987740901
H         3.17177763824194    7.10569247942512   17.23448206436013
H         4.09285635464704    5.60052678304852   17.26453124387130
H         2.61686052324544    5.71298256281809   16.29446942211839

