24
CSD_code = YOMFOX | q = 0 | S = 0 | Stoichiometry = C9H9Cl2N3Zn | MND = 4
Zn        0.16958439562809    1.87636822161641    1.69227750174918
Cl        2.03115059274081    0.75548743660404    1.38922613310614
Cl       -1.79876951824832    1.46243691026045    2.55005313040947
N        -0.21811192171322    2.57984906958724   -0.28080447934472
N         0.61990348936883    3.97107999500519    1.89532912468903
C         0.49030290146494    4.64273865552804    0.74656328886256
C         0.07517334146194    3.87002642769614   -0.41189458339347
N        -0.54860305553074    2.13676856516432   -1.48381941838724
H        -0.80255242469388    1.16751398388650   -1.61168168064011
C         0.74333929266908    6.01193580164922    0.67236467107286
H         0.62938463747755    6.53172944399330   -0.26494126426784
C        -0.08311408848381    4.25018003021729   -1.75799630382266
H         0.07620795950559    5.21529290218768   -2.19107109354039
C        -0.48318320765730    3.10676325133277   -2.41881315521495
C         0.99479352370152    4.61695067980673    2.98723118508853
H         1.08059417895003    4.02126185513911    3.88531766338246
C         1.13659718117595    6.68526392787331    1.81457938118796
H         1.33822370431781    7.74551755320983    1.78184464289105
C         1.26577635439852    5.97586927426162    2.99886827718645
H         1.56938650394876    6.46210524131554    3.91174254144300
C        -0.80390081990984    2.86050409483646   -3.84477848396126
H        -0.68949053222557    3.77662344264961   -4.41602282933586
H        -1.82856778618352    2.50653931454445   -3.95002153293693
H        -0.13942470216322    2.10339392163483   -4.25895271622325

