32
CSD_code = YOMJAL | q = -1 | S = 0 | Stoichiometry = C14H12N2OReS2(1-) | MND = 5
Re        9.46934931416811    1.89394974413598    2.17500924070840
S         9.12367604336577    3.87113263405787    0.92801519652139
S         7.56122115933375    0.84482981734344    1.25614054013046
O        10.78588590534764    1.13545393741714    1.46201879075698
N         9.92429391108718    3.21248221489930    3.57411959790032
N         8.78955046952715    1.02339696978132    3.81316156821042
C        10.11130396439291    2.73405639619967    4.93068662816816
C         9.40169609020387    1.37449079366627    5.08055613184539
C        10.25141961087215    4.51048272925189    3.30327287321956
C        10.86688929670092    5.40169425604825    4.19058848394267
C        11.12102631491828    6.70864417988281    3.81489241915932
C        10.77099676661510    7.16809188501198    2.55617065899421
C        10.16387123278840    6.30538164240827    1.65819587758114
C         9.91364339076742    4.99405651982998    2.01727920916856
C         7.90559788149752   -0.01764400270726    3.79774755751869
C         7.61831912949086   -0.86309554754748    4.87624854339748
C         6.67633527073121   -1.86871456394112    4.75297982541697
C         5.99319024029121   -2.06194222354473    3.56381480582878
C         6.26091507630790   -1.24080601439204    2.48071713719926
C         7.20710225778787   -0.23849804673375    2.58741596127607
H         9.68745156379876    3.45874332663794    5.64059670630484
H        11.18440700466893    2.62871065170107    5.15000992773629
H        10.12385235929195    0.60007816794173    5.37968441887680
H         8.62829805086400    1.43881617504979    5.85936045398422
H        11.16312513591911    5.07165953611812    5.17585524720097
H        11.60211011379670    7.37563882975186    4.51887704212211
H        10.97344113931305    8.19166019833844    2.27260394301935
H         9.88278823323409    6.63796582824701    0.66991105610064
H         8.14191872953058   -0.74629695384756    5.81411028147743
H         6.47646832038274   -2.51102021255795    5.60114261022771
H         5.25834345763667   -2.85049528097274    3.47806418544484
H         5.74321256536839   -1.37120358747555    1.54195308056002

