84
CSD_code = YOMKOB | q = 0 | S = 0 | Stoichiometry = C23H53NNiO2P2Si2 | MND = 4
Ni        9.66249041590464    0.09830756378197   14.77808929102876
H         9.22088845154881   -0.98025286092922   15.48086889543097
P         7.94247816805883    1.00936499140210   15.84525431509102
P        10.99851530946553   -1.49808849898886   13.99042969736021
Si        6.37054452358968   -1.88594527486249   15.50344345143856
Si        8.15774642713462   -2.33443205776412   12.91308629599959
N        10.37603482510734    1.64506693927933   13.95592698501523
O         7.47110846808150   -2.36032153540867   14.39863144674176
O        11.37061253913041    3.61095956788669   13.11823977319423
C         4.64084788476123   -2.24090742692594   14.78488400093305
H         4.53367777096703   -3.29505573183145   14.55292147009827
H         4.46361876666094   -1.68888957326676   13.86674501027121
H         3.85358180622756   -1.97924739780752   15.48396128841100
C         6.65883746994908   -3.00782065588485   17.01573117588329
H         6.43759256047311   -4.03631993935391   16.74701926003586
H         6.00303589741533   -2.74097669333618   17.83827687695236
H         7.67933853624746   -2.98178530057637   17.38048534648298
C         6.38208702098804    0.00987227799627   15.83796097844638
H         5.78885996682610    0.43329432409480   15.02656688631256
H         5.84142697572376    0.22605157077827   16.76046546719316
C         8.42189345884111    1.14629017509655   17.67940912395622
C         7.49971156612118    1.97989186469788   18.56555520789113
H         7.84234745327953    1.90636488206797   19.59806809859256
H         6.47600167956104    1.61143940357086   18.53178059710485
H         7.51080246871184    3.03104110264966   18.29437299110671
C         9.84358753747712    1.71666502518897   17.70574630166799
H        10.33101260731346    1.49466381859185   18.65432349519205
H         9.84810972143898    2.79346537390851   17.56750406728025
H        10.43640042606549    1.27442646851230   16.89682140573061
C         8.45499750686258   -0.27093751665236   18.25338573913772
H         8.86788298763572   -0.25093082042829   19.26161883369045
H         9.08292058737388   -0.91609553802309   17.64344750763367
H         7.45668298343436   -0.69572310902557   18.30295641519891
C         7.25515039716817    2.68940269705841   15.25510792410531
C         7.14410012222982    2.57581553017592   13.73219539775909
H         6.74708868621432    3.50161771018149   13.31752973492400
H         6.48173270468683    1.76349856498313   13.43656291308379
H         8.12697988575814    2.40538635153820   13.29858027383654
C         5.87882283190016    3.06652973653345   15.80940557800403
H         5.62842658868520    4.06526164032930   15.45161600374023
H         5.85586438263866    3.08949691750603   16.89284678412767
H         5.10011919176910    2.39238962273130   15.46200115209884
C         8.25667766701373    3.80001314581993   15.56853975389333
H         8.01208638760640    4.68909981776392   14.98812721848351
H         9.26219574504610    3.49020275824302   15.29443151684206
H         8.24117282628535    4.07784609901643   16.61912589399713
C         7.29228790266404   -3.66818639024213   11.87348012071762
H         6.24004779547738   -3.43559839463587   11.75960486513719
H         7.36213926333525   -4.64344944105399   12.34218931877359
H         7.72309761881398   -3.74368941167326   10.88188514212603
C         7.96822946746094   -0.59537460826309   12.18568996082034
H         8.51126580602661    0.11138095721327   12.82548215983789
H         6.92763614657538   -0.28595997500742   12.15604210523585
H         8.36864151197116   -0.50464939317491   11.18155544675326
C        10.00974343221448   -2.78224307788226   13.09702457824879
H        10.11857280817918   -3.73192401949785   13.61375261682990
H        10.42008225748720   -2.91074120324800   12.09786997739385
C        11.80977066622028   -2.47088054145209   15.41527237396731
C        12.24550520154943   -1.41486080021488   16.43286224130359
H        12.62928559641201   -1.88296496184066   17.33880744631105
H        11.39222875523020   -0.78746775597261   16.69788225476742
H        13.02114869380114   -0.77130453624567   16.02559314205646
C        10.75257633920607   -3.37616686641013   16.06041740326915
H        11.01945237409272   -3.57043493701436   17.09843468357901
H        10.68886000567265   -4.33656107060659   15.55348372120470
H         9.76743157305819   -2.91407632775633   16.04024660217968
C        13.00364473750632   -3.34039529340309   15.03199292160859
H        13.28424473551227   -3.95546556648139   15.88755796642371
H        13.86707851992742   -2.73766464778702   14.76646056332292
H        12.76174859424929   -4.00492366601227   14.20594154400615
C        12.30320964842273   -1.04331596734794   12.68150039304606
C        13.27973422220015   -0.04642753422696   13.30244646307704
H        13.89141668081132    0.41159599348570   12.52634142045509
H        13.94776830276628   -0.52954375579725   14.01263570717358
H        12.73281079133205    0.74473451321406   13.81245394788860
C        13.07659398576426   -2.20118592007687   12.04521587480935
H        13.49119629690410   -1.86090969563984   11.09649635967733
H        12.44518195277358   -3.06160205899650   11.83688949838548
H        13.90732478080167   -2.52567915756370   12.66242896064628
C        11.51041796823480   -0.33203765802502   11.58010734798557
H        12.19471044552810    0.11911960888357   10.86264337320281
H        10.90283200101625    0.46294020237931   12.00708505872710
H        10.86367949285274   -1.02340172279268   11.04314440870711
C        10.87741144258831    2.62721907083123   13.54293418892396

