75
CSD_code = YOMRAV | q = 1 | S = 0 | Stoichiometry = C30H30CoN8O4S2(1+) | MND = 6
Co        8.58296104363574    9.63538140746233    5.62824430579881
S         9.06582730591905    7.44036785274351    5.93557517753877
O         8.22768515219937   11.49299627400644    5.35276526245832
C         3.42078192817710   11.37239856815566    4.15971773847856
H         3.56649208609219   10.70719057502483    3.29492422817044
H         3.11326513451413   10.75939151031020    5.02014432107629
O         2.44501253425584   12.34325119639625    3.87141701046099
H         1.60734121730576   11.90396595287224    3.69123200088799
N         6.85307267615616    9.10461101014829    5.16047847350470
N         5.90344444455256   14.07307799592239    4.77913096364106
H         5.89608383690771   15.08824819283618    4.78302338559576
N         6.55448467255057    7.81386040851048    5.12648994674543
N         7.24401838192508    5.62781667006845    5.50121434025959
H         8.03627528739082    5.07686347849628    5.81011541715206
C         7.10451954812554   12.03463497556664    5.08471309438015
C         7.04945529993949   13.45246957310575    5.07413746622970
C         8.26467364769922   14.24764594246245    5.39130160947253
H         8.05204991940522   15.31302401186875    5.42159937299943
H         9.03914626687084   14.05389104563454    4.64938210030313
H         8.66913840870076   13.92872541328663    6.35140617541476
C         4.76451276930900   13.42149867202188    4.48487994475894
H         3.88760961092663   14.00118200196949    4.25590901227309
C         4.72794209474679   12.04938289657388    4.48574293227494
C         5.89532549233274   11.31231231653398    4.79659576746958
C         5.86675874897566    9.89503624036677    4.82800327298667
H         4.93780877831997    9.39580141727810    4.57508534472404
C         7.47294185232007    6.95138463955149    5.47598110931803
C         6.08832730105092    4.89464144199980    5.23047043852369
C         4.89869518421825    5.47371595415815    4.79990427355360
H         4.85135600418987    6.54089890933349    4.66851028096666
C         3.79752363677525    4.67438915826472    4.55205651489941
H         2.87666162164406    5.12972675130881    4.21996937948393
C         3.86505704730988    3.30231275017990    4.72582427580271
H         3.00113638939979    2.68646843849296    4.53096169424762
C         5.04973643102011    2.72427637565864    5.15301104507951
H         5.11257927310506    1.65605901548850    5.29248523735098
C         6.15574175001558    3.51208045016073    5.40393363089643
H         7.07828909906006    3.05963621476241    5.73915744983481
S         7.98843901417318    9.89135574124525    7.80235144868999
O         9.03356581525529    9.44576841706363    3.77925703764429
O        15.04633441885765   10.06118678398693    3.09938535779603
H        15.28352985459401    9.12788599828893    3.06739640754982
N        10.31023409940208   10.13777004374942    6.12671030139714
N        11.50659292735206    9.21592656653203    1.28231593183271
H        11.55260877137441    8.98915633963326    0.29408974889310
N        10.54860422966754   10.49490766332967    7.37869495707060
N         9.74231200316749   10.71919998574861    9.54484829623689
H         8.91333558332319   10.58642651174124   10.11228509625538
C        10.19653032550071    9.48990875057994    3.25782988510734
C        10.31274073003448    9.16190302693530    1.88279214190392
C         9.11223139601772    8.77601912816676    1.09443653922294
H         9.38166149989646    8.20108465927897    0.21170395340461
H         8.56364025717678    9.66523614470406    0.78117461765866
H         8.44240948063115    8.19387997855419    1.72409734108593
C        12.64019113793805    9.55522287955241    1.92275658210288
H        13.55237443068095    9.58447629169029    1.35003635626751
C        12.62057523689916    9.87018020152489    3.25871769220460
C        13.92942206188968   10.24058181268249    3.92631710889484
H        13.91301294197267   11.30846129940888    4.17057708537684
H        14.04029455681482    9.67606484959449    4.86071555921373
C        11.39492317618133    9.85399999451347    3.96658755492100
C        11.35366343731835   10.19804607118420    5.34076434691382
H        12.27069166704488   10.53281785976542    5.81272268181478
C         9.57458983144439   10.41215646322198    8.24813566346837
C        10.87855339673346   11.11856699297126   10.24992900234761
C        12.10802313869629   11.36104592512130    9.64525602489861
H        12.20425298438393   11.23693343123267    8.58054242646515
C        13.18633271119978   11.75323925859953   10.41753962729276
H        14.13813207366782   11.93768886132694    9.94271049581459
C        13.05628903491847   11.91007154455354   11.78720265989590
H        13.90286140904959   12.21483721127987   12.38221224029705
C        11.83141692685040   11.67247217321660   12.39004256881697
H        11.71960870432964   11.79173110728517   13.45671528617280
C        10.74771030005091   11.28011297245624   11.62939376074287
H         9.79367855850331   11.09306136032200   12.10166221931946

