31
CSD_code = YOMTUR | q = 0 | S = 0 | Stoichiometry = C9H12AuBr3N2O4 | MND = 4
Au        1.81184474249951    4.78356825640695   10.00083474637130
Br       -0.42757612910443    5.53878587547522    9.33222407590836
Br        2.88217837967517    6.74799840009244    9.10735349515836
Br        3.93440587963090    3.84037244552620   10.81110169781133
O         1.17766559135505   -0.33334071995726    8.85611885745497
O         1.80359943740898    0.82431858165180    7.04959113805174
H         2.25010961798518    0.00604625568727    6.77430106006478
O         2.16182270637353    1.76243447700726   14.08778122641157
O         2.94787155347494    3.80394218512417   14.55997572261828
H         3.63856035196662    3.34500272278017   15.06610637601512
N         0.41586231464053    2.09698254836813   10.04331788301343
N         0.66176558432162    2.87111634244519   12.03787047284647
C         0.90404033240314    3.12479328729010   10.74705016159259
C        -0.12814909370143    1.17758123275430   10.89855808255451
H        -0.55084561475875    0.25768871637405   10.55587563438012
C         0.03159686053000    1.66230694744413   12.15346362079488
H        -0.22814425531566    1.23844798656624   13.09935137055476
C         0.46404192462098    1.96900808245177    8.60657336559487
H         1.02817711711913    2.81366514316145    8.19695170014036
C         1.18954852247551    0.67715681492024    8.21401234422643
C        -0.94386336144283    1.95835652834244    8.00448151721465
H        -0.87417696800572    1.90480018849150    6.92181827151795
H        -1.46365141462816    2.87516883188412    8.27431200287828
H        -1.50992457135948    1.10403467029303    8.36674383362587
C         1.06847456929019    3.70251049645282   13.14450965889321
H         1.53161936344221    4.61272626676885   12.75009119222659
C         2.12426476707779    2.95341859769862   13.97435181239049
C        -0.11782941251779    4.07828208002130   14.03293426614734
H        -0.88533259812036    4.56827077082570   13.43753094711948
H         0.21547177198941    4.76430085146685   14.80663289992544
H        -0.54352796932304    3.19685513618626   14.50548056649528

