39
CSD_code = YOMXOP | q = 0 | S = 0 | Stoichiometry = C14H18HgN2O2S2 | MND = 3
Hg       -0.64934304142441    6.16849226517765   11.09748552563687
S         1.15121255807302    6.88020764598231   13.08029365440526
C         0.03993522649839    8.12402938557033   13.49301621552794
S        -1.38536161665335    8.37345754852740   12.59583494227401
N         0.30220839740124    8.89270243009854   14.54932269558369
C        -0.49260446694571   10.04821354642268   14.90854791761560
H        -0.72513547343763    9.98862844283175   15.97652149547742
H        -1.41951696201329   10.04823341614888   14.33582229832380
C         0.31299022754270   11.32189363009788   14.62606678029521
H         0.49035494969277   11.40978886140194   13.54890912130702
H        -0.22430424626314   12.20166857148526   14.98152126305650
N         1.58445368014450   11.26206450081975   15.31106581648160
C         2.36716155618515   10.08979991993167   14.99943453352059
H         3.28044157261614   10.09363143229724   15.59094141918193
H         2.62427498036510   10.10976157044464   13.93421018287142
C         1.54135942961672    8.83005121254751   15.29349686384933
H         2.09641754933396    7.93516411784558   15.01350208677307
H         1.29977403332487    8.78897756499001   16.36062658808346
C         1.82011246720417   12.08416535287742   16.36561065768089
C         3.34065905167720   12.68201096474866   18.04842134095279
H         2.57742429141911   12.60643384085332   18.83109011443148
H         3.34597766124816   13.71326491723948   17.67921306251495
C         4.70619938621121   12.27217617728261   18.56671360001927
H         4.68128459840187   11.24432287308854   18.91883327519362
H         4.99355788069615   12.92231250843816   19.38760435208072
H         5.44630910287148   12.35045876112791   17.77487022171031
C        -1.99164922374580    5.45804129490603    9.46048371604258
C        -1.72105989980919    4.36164339273150    8.64946004923372
H        -0.81707711129252    3.78148739135354    8.78046309597746
C        -2.61723583152782    3.99778545948498    7.65481865386001
H        -2.39777952417504    3.14425569723312    7.03012019431470
C        -3.78167045456080    4.71951851896636    7.46298796088265
H        -4.47561788885035    4.43175950415963    6.68697077540495
C        -4.05392486941332    5.81107239093423    8.26846528327632
H        -4.96080299555064    6.38005955570319    8.12549404124657
C        -3.16339314079198    6.18178055036399    9.26505043305584
H        -3.39338678980222    7.04096498518725    9.88758077648272
O         1.08092133851573   12.97877255879368   16.70063393209793
O         2.99173359722244   11.80714724190491   16.97439506327540

