29
CSD_code = YOMXUV | q = 0 | S = 0 | Stoichiometry = C11H13HgNS3 | MND = 3
C         1.69273809707073   -0.79265901544719   13.90135696133802
N         1.33980045001840   -1.65260207160312   14.85866524104111
C         2.20683957779698   -2.72136574033049   15.30733837634918
H         1.59133148452729   -3.60706768268000   15.49333108344437
H         2.93261400724427   -2.94726933664964   14.52322405818394
C         2.93142161849853   -2.31899070503985   16.58558398945168
H         3.49310728421632   -1.39559632054853   16.43764292328637
H         3.60476871354903   -3.10737709450961   16.91493322134828
S         1.73815931512882   -2.06291201108099   17.93836415245407
C         0.69540788009880   -0.84636567706476   17.07101978690292
H        -0.14515643555853   -0.63763399057105   17.72916179003109
H         1.27611019272961    0.06441294913554   16.91885206546651
C         0.21662459067856   -1.40913519567057   15.73906028941889
H        -0.46307182697992   -0.70209540416302   15.25884859715520
H        -0.30400112981298   -2.35788116554275   15.90185026510794
C         1.79284273181434    2.90647889749358   10.34104108824437
C         2.46295521337008    3.45653979935834    9.25449261447558
H         3.38037134920080    3.01886183076286    8.88369562691377
C         1.95278535613183    4.58592912918837    8.63008672659414
H         2.47928336592831    5.00788270142367    7.78637991412784
C         0.78141650372644    5.16796791306159    9.08117920392456
H         0.38961929882583    6.04664982062876    8.59008058995748
C         0.11337229510091    4.62158783536269   10.16289442031396
H        -0.80150788689181    5.06999905343228   10.52162681141801
C         0.61597408390954    3.49305755037255   10.79342864601747
H         0.08030902317414    3.07647133793501   11.64197883690149
S         3.14679769142893   -1.08115294708222   13.03081418915857
S         0.70195611023304    0.54387779934595   13.55530821027130
Hg        2.45113104484170    1.10368774048348   11.47946032070644

