84
CSD_code = YONBIO | q = 0 | S = 0 | Stoichiometry = C41H39AgP2S | MND = 3
Ag        0.19911197060861    8.94951743324813    5.15260565601462
S        -2.08549791301857    9.45714415328146    4.53391078873969
P         1.83384130842215    7.40177560330492    3.73731467856507
P         1.89691131553996    9.37641173222857    6.95730994537735
C        -2.21123751542960    8.31604281436384    3.19823980774069
C        -2.45633156563828    8.80753696401762    1.91069025569973
C        -2.52994486392083    7.91983622357252    0.85093907989657
H        -2.70028738064652    8.30516453190104   -0.14581285539219
C        -2.39858021690424    6.55240601619080    1.03605283796909
C        -2.22807343747313    6.07818351698907    2.32908234956115
H        -2.18165837300301    5.00865934156095    2.49526095101752
C        -2.13854405460708    6.93397654132833    3.41526279203660
C        -2.64099713482717   10.27674132157363    1.69277538928141
H        -2.76082248102267   10.50460017323668    0.63582168116035
H        -1.79195946393908   10.83181290592496    2.09252469535049
H        -3.52305728913576   10.61964841583402    2.23315165426888
C        -2.42923821635155    5.60481811312556   -0.12685470779544
H        -2.88569342232711    6.07332289871477   -0.99582550015885
H        -2.98784096411490    4.70340703900566    0.11990569143344
H        -1.41282318172913    5.30902771578453   -0.39435753507832
C        -1.97530762230787    6.38684173525760    4.80125886505747
H        -1.95171006062560    5.29961075560348    4.79800878316754
H        -2.79628843799432    6.72634766692998    5.43275505155018
H        -1.04094796038871    6.76181418513445    5.26039701048639
C         1.35432450113813    7.66166995743927    1.99766040496344
C         1.63033176122310    6.75298040340374    0.98166735282563
H         2.11093031090217    5.81130556346474    1.20873247969981
C         1.27911788693585    7.05105130614075   -0.32190705283432
H         1.48252245175484    6.33690652489650   -1.10719312746432
C         0.67617438282106    8.26088435553913   -0.62435711840340
H         0.40534331499419    8.48742065560951   -1.64498877540791
C         0.41631669404482    9.17564428328029    0.38161746353820
H        -0.05025986554980   10.12033023213095    0.14915754418161
C         0.74472696984849    8.87166756516253    1.68874269665830
H         0.52428273815386    9.57402716662451    2.49029718024416
C         2.10986327047667    5.60182844771368    3.78905674439638
C         1.01335217017065    4.81233091341353    3.43985287817694
H         0.11612654081437    5.29767636922282    3.07992206175807
C         1.08090905597975    3.43726011248213    3.53659058155529
H         0.23047978662391    2.83440648189994    3.25326872029321
C         2.23809338816085    2.83028633942844    4.00124436597560
H         2.29242525600146    1.75466228725773    4.08074120526694
C         3.32309734675602    3.60795278995604    4.36633023141024
H         4.22595200702887    3.13919058088676    4.73128630280029
C         3.26194350872012    4.98774597492442    4.26775719713608
H         4.12362062876903    5.57132581450475    4.55880136570572
C         3.57107666564701    8.08711322495138    3.61998703655485
H         4.15594342482018    7.69148570321522    4.45093053762209
H         4.00898750516711    7.74225698523646    2.67876433720901
C         3.48866730210925    9.58071551295775    3.66584077541220
C         3.39763798591233   10.28063893954243    2.46591338542175
H         3.45823971198471    9.73425852137628    1.53528660113202
C         3.22658802329696   11.65149973490754    2.44289810684647
H         3.14785692768729   12.16819073746626    1.49842009085082
C         3.14647015331297   12.35206460924603    3.63383053559716
H         2.99557725084131   13.42088396627554    3.63102249868740
C         3.27006288303719   11.67485954133291    4.83165202185475
H         3.22883526962788   12.22099784963443    5.76461777895601
C         3.44959225017700   10.29499694573336    4.86999500138787
C         3.58539408406092    9.64510053032959    6.21370625559371
H         4.15656995802061   10.29036903996002    6.88681286029879
H         4.08042532589014    8.67472855136323    6.16212941101044
C         1.68830199767924   10.88352723324911    7.95314833262086
C         0.51611287868138   11.60943092188902    7.77007162609818
H        -0.22502598183555   11.25081870926528    7.06149926745876
C         0.30119442672187   12.77616909671888    8.48221111868779
H        -0.61009245951818   13.33605485394300    8.33509675628037
C         1.25545825117987   13.22216359753533    9.38112185930235
H         1.09034650508995   14.13206731387986    9.93892634580756
C         2.42576998858548   12.50183344222893    9.56805870902899
H         3.16865946826370   12.85027927096070   10.27113766614000
C         2.64601682152878   11.33687706384439    8.85773370543801
H         3.55902105427739   10.77636615700706    9.01195246783005
C         2.29445580578009    8.07251166602507    8.16373404921040
C         2.64022018246122    6.83273061918703    7.62637630284795
H         2.67369942453950    6.71116153144290    6.54889739968507
C         2.91243835019942    5.76104810017147    8.45177112960315
H         3.18292766765712    4.80656360397438    8.02397296975825
C         2.82381191751771    5.91169322550225    9.82746466865504
H         3.03722270908702    5.07615822830349   10.47724200227481
C         2.44150460185286    7.12876599143322   10.36586749361588
H         2.35055097505548    7.24008243976376   11.43650926624468
C         2.16759920349239    8.20640292021974    9.54131233673654
H         1.85038434517480    9.14673169647171    9.96878922380883

