90
CSD_code = YONFUE | q = 1 | S = 0 | Stoichiometry = C35H52AuNP(1+) | MND = 2
Au       12.66803654668117    1.32157955901381    6.73605835726765
P        13.70394373344257   -0.65649482337674    6.44020314558596
N        11.69240743575427    3.07546752233512    6.91092583127676
C        11.18100683147477    4.09783435656213    6.82781936236325
C        10.53638911420301    5.35476973879419    6.73267097610788
H        10.40260248383809    5.61740005644538    5.68259222054271
H        11.14322200110117    6.11668021999579    7.22276552015587
H         9.56085995245618    5.30534903061129    7.21804934288329
C        15.42795794790669   -0.69772457465522    7.00238179413594
C        16.08623275229408    0.42800386445741    7.51135590035989
C        17.42667249347192    0.30098569875815    7.87322182974437
H        17.94224253002133    1.17224280483814    8.24993112734103
C        18.09777225600698   -0.90067308385535    7.75699092940835
H        19.13525364323430   -0.96865462202696    8.04538176799770
C        17.43506972671918   -2.01733733213084    7.27182123468109
H        17.94871507012357   -2.96210968371804    7.18333827789434
C        16.11241037998112   -1.91055236246255    6.89325829870112
H        15.59779583903400   -2.77875691337970    6.50432699894377
C        15.46724582788421    1.76455981353686    7.71485727859444
C        15.49691225831067    2.72113936518716    6.69061628743130
C        15.02261578374394    3.99905317515338    6.94668424332417
H        15.04994941140889    4.74013912248006    6.16163060510977
C        14.54306701625846    4.36599299998205    8.19506306330619
C        14.54571455102182    3.41636015489000    9.20264555548121
H        14.20574263421415    3.68719486016802   10.18783821378787
C        14.99662885061324    2.12259457462990    8.98499689613386
C        16.09196095781482    2.39890230394302    5.34070093010667
H        16.25079245590899    1.31693673795867    5.28371478452320
C        15.16975878482121    2.81237857401021    4.19219956061155
H        14.16870826635673    2.40439644883126    4.33836085048100
H        15.56437455066363    2.44679439901034    3.24650585910219
H        15.09011661682712    3.89358341917030    4.12033833422938
C        17.45607288492133    3.08012456722403    5.20349121360227
H        17.35555429314367    4.15991758029548    5.27970842049851
H        17.90071062446859    2.84124062211893    4.24049388783375
H        18.12955351523658    2.74183855694930    5.98715852652452
C        14.10695330274029    5.79088826523944    8.43478863648503
H        13.73320414693796    6.18969714851193    7.48267830130208
C        13.00632950337757    5.91564805766032    9.48930199473734
H        12.22238154242073    5.17628356757391    9.33048376788060
H        12.56777604567120    6.91102852106036    9.45712163755407
H        13.41270693260160    5.77287486750482   10.48693962818468
C        15.32645413438163    6.62306462559398    8.84589227713379
H        15.75179666734049    6.23541200913296    9.76850009439223
H        15.04152906681406    7.66035708802521    9.00421888269489
H        16.09201899715888    6.58674806657488    8.07473192940646
C        15.00483468311381    1.14222969624630   10.13408876578641
H        15.15454645651010    0.13658933524584    9.72984489497928
C        13.68392001536595    1.15996830993480   10.90827254642029
H        13.61786703185745    2.03345299645203   11.55113930760116
H        13.61214802382830    0.27768001897120   11.53938902365450
H        12.83407391871655    1.17216305586169   10.22745888792026
C        16.16948233435382    1.44902169609784   11.07967560008221
H        17.12101821255421    1.35470973517795   10.56301341212502
H        16.16257077786374    0.75450753944847   11.91613360877358
H        16.08903752914636    2.46075278073850   11.46964808369743
C        13.70955495763083   -1.27639398581276    4.68375795727186
H        13.55064955573398   -2.36331259925142    4.73660082807017
C        15.00411408942271   -1.00494070967132    3.91770936782584
H        15.15732701267977    0.07156828729147    3.83546766330395
H        15.86369950354524   -1.43220291259280    4.43772518403378
C        14.90614500003582   -1.60411458493097    2.51582695375084
H        14.78037878568454   -2.68659283681234    2.59001041173152
H        15.83425319615081   -1.41387267780058    1.97497128829137
C        13.72743821835462   -1.00596544678575    1.75465733238096
H        13.88936761246109    0.06554768178073    1.61756190928661
H        13.65411853082956   -1.46156393957802    0.76678138431369
C        12.43009231143463   -1.22756172968039    2.52537789363569
H        12.22491759900281   -2.29798385407189    2.59565624964932
H        11.59631158110168   -0.76272709975557    1.99705670980261
C        12.53975518065409   -0.63758779241216    3.92914146514761
H        11.60164154626603   -0.78311807197423    4.47047163605838
H        12.71283156487083    0.44040416346785    3.85457329551315
C        12.90773788649865   -2.04504719475584    7.36815872792567
H        13.43328510909919   -2.97423505351230    7.10932373100742
C        13.04572921714933   -1.78535622641903    8.86686016609566
H        12.59651612902089   -0.81560802124126    9.09956396269764
H        14.10338760539754   -1.74353851435637    9.13863404417358
C        12.35176433821392   -2.87450303427198    9.67906445651261
H        12.84082838340880   -3.83332098745754    9.49400991679459
H        12.44769891163000   -2.65120627254755   10.74255544127576
C        10.88016828860892   -2.97225873416801    9.29337935346684
H        10.37736246992464   -2.03150922368210    9.52894177982263
H        10.39686612748082   -3.76310292408592    9.86760924633132
C        10.75010311906944   -3.26142808150140    7.80239747039276
H         9.69762292886054   -3.31967505337114    7.52108025775779
H        11.20869851075480   -4.22728417900735    7.57962867801118
C        11.43534136692740   -2.17362411023207    6.97744282367294
H        11.34263593974564   -2.41962192944717    5.91763140808414
H        10.93453807828306   -1.21449646411630    7.15045229906123

