73
CSD_code = YONJET | q = 0 | S = 0 | Stoichiometry = C34H32Cl2NO2SV | MND = 6
V         9.71939192667818    2.89585889491813    1.12540081173971
Cl        7.99132717835298    3.19821073249615    2.26711121937792
S         9.10733912083272    0.48626406951537    1.41278204985323
Cl       11.49831829860048    2.29575814802891    0.25237330446050
O        10.06524808925091    4.86621618788779    0.91371020265516
O        10.86694048938621    3.17181182482597    3.02282385944846
N         8.69916965306262    2.71258937087674   -0.56016516765788
C         9.65090527575574    6.97132402246840   -0.18150191079590
C         8.46513988515134    1.45679826968313   -1.08653318598285
C         8.15258267380486    3.76785938267738   -1.13567744228452
H         7.37730147917832    3.60409200508617   -1.88833964533110
C         8.48358960909704    5.08108132531706   -0.87905890395785
C        10.54999521018902    7.86041707507960    0.41430562820564
C         9.47304628076674    5.52811448530194    0.03558531797944
C        11.76229787276563    8.04926641633472    2.57302114035929
H        11.12717996731730    8.88506614987722    2.83113528980962
C        10.63406319105259    4.31801338453398    3.81750088271119
H         9.58245236046927    4.33096595435829    4.14260806574485
H        10.84119946649477    5.19789817276615    3.20851199057103
C         8.62101171947267    8.74431977060561   -1.45631082529007
H         7.89343154305767    9.08851576493046   -2.17639348825684
C         7.88669150411682    6.25766649812719   -1.61122452333488
H         7.96035573312901    6.15359404789902   -2.69720053331464
H         6.82910065006503    6.38873679404034   -1.36417673624708
C         8.38753947827842   -0.95749474460868   -0.78677004698132
H         8.50149783573537   -1.80739235630164   -0.13016547920050
C        12.67339681551308   -2.31816060717918    1.74762002947376
H        13.52346586715501   -2.97600693861080    1.84902031805622
C        12.39283597607248    6.31723557799432    1.03568241222813
H        12.27964995569266    5.82256778888414    0.08140603850695
C        10.49984039970367   -0.62501991273139    1.48155086192174
C        11.68071959836563    2.62878082139865    5.16925348420888
H        11.20094196502800    2.27735694470096    6.08088473847442
H        12.72090585665648    2.30803492415910    5.18538949639946
C        11.58352151671189    7.40227889315407    1.35454582849820
C        12.72717200655041    7.61714752284113    3.47154332373140
C         7.92074197663871   -0.02274203109773   -2.93370102167417
H         7.67233276325663   -0.14677179659894   -3.97731698644185
C         8.03066810620681   -1.13290684783351   -2.11024180061759
H         7.85349701647983   -2.12387462871429   -2.49768883146990
C         8.62732449777005    0.31348855447704   -0.28862898073500
C        10.95643099861825    2.08643076013498    3.92341754466590
H        11.50266438828923    1.28274180765750    3.42172270129595
H         9.94287277203638    1.74090580152899    4.18375088959622
C         8.70492182791337    7.40993671872298   -1.11562426792770
C        13.34852859618529    5.85652434265889    1.92979175790900
C        11.31759886414715   -0.87026656511340    0.38804496328356
H        11.11782422919410   -0.39382902267862   -0.55959595112711
C        12.40131372363298   -1.71832891527844    0.52871982607294
H        13.04110250595944   -1.90494298822162   -0.32072276906808
C        11.57384189992012    4.15474570298962    5.01441174168263
H        11.17997238876766    4.63963631385669    5.90473119601626
H        12.54469539627892    4.58882553224344    4.78198492069540
C         8.13436048605552    1.24574570577392   -2.43554612892418
H         8.08234696649517    2.08736159870113   -3.10999922636406
C        13.51137782831835    6.52103983422467    3.13835921954137
H        14.26726362294840    6.18081204337861    3.83400968698648
C        10.43912314226199    9.20408492395253    0.06533812083129
H        11.12146876162949    9.91632340853373    0.50611980730207
C         9.49386425846262    9.63766532075229   -0.85007495242285
H         9.44154985468680   10.68708654761721   -1.10126309234180
C        14.15578588683365    4.64215388043326    1.59213548729864
H        13.48957385727778    3.78542882776344    1.48078350836319
H        14.88534417528239    4.42239836232972    2.36821627323034
H        14.67876733645653    4.77765151711875    0.64644572155648
C        10.76329853400450   -1.22966174063004    2.70480420884469
H        10.11172459713176   -1.03517725817718    3.54403344171061
C        12.89250530615728    8.31103300733614    4.79079268286851
H        13.81109887421321    8.00046245632798    5.28249561115971
H        12.05456328074424    8.07217630495121    5.44618228186457
H        12.91393676831124    9.39110910086272    4.65796063165786
C        11.85229157737805   -2.07207397638195    2.83573181505818
H        12.05645648464365   -2.53895926577952    3.78787156355940

