60
CSD_code = YONJIV | q = 1 | S = 0 | Stoichiometry = C27H29ClNRuS(1+) | MND = 9
Ru        9.20969988928463    4.04914666288407    2.23871731137299
Cl        9.50459552376139    5.83585113384685    0.74233376991379
S        11.54341761516941    4.20722466568927    2.77739590501712
N         9.06528695097170    5.69063867401973    3.60913131370765
H         8.96070624770051    6.50972869989684    2.99056879112912
H         8.22718016464851    5.64743757498925    4.19365785532343
C         8.36567941403809    2.28829372706942    3.40465650144063
H         8.48282625402645    1.97063593219932    4.43395655840356
C         9.23569922339571    1.78150746346733    2.41589700636946
C         8.97907479180936    2.08500976990070    1.04818294990650
H         9.56666530116254    1.58676344217379    0.28377297713423
C         7.90405924787909    2.90798337602533    0.66921540333756
C         7.08708215795789    3.46655897711312    1.68923902405851
H         6.22516349620813    4.06222914696102    1.40583313418402
C         7.28210695182444    3.12609812347842    3.04871324560406
C        10.33381543693589    0.83104568451982    2.77707101995538
H         9.97682480884979   -0.19278359447698    2.65585231072793
H        10.64497428697429    0.96266060803162    3.81073748910876
H        11.19898425609381    0.96347904458728    2.12984401473503
C         7.60910553848948    3.19699047866303   -0.76562588144865
H         6.55711194810812    3.01527585876222   -0.97946414323134
H         8.21918319390294    2.58724898599282   -1.42705050638471
H         7.81209902955049    4.24736472887212   -0.98140302176017
C         6.29940574672386    3.57558987005746    4.08595962180392
H         5.49795791334359    2.83788660826229    4.15119510055899
H         5.84569254741106    4.52907390024216    3.82127571058150
H         6.75792998945088    3.64880886424088    5.07039550751290
C        10.24052057041505    5.91542688996096    4.47194779378235
H        10.27649054974552    5.10550518079389    5.21317703469224
C        11.49405489358878    5.84677083432018    3.60528559381258
H        12.38942460146621    5.95559948341177    4.21587078492569
H        11.46959009797423    6.60024208843710    2.81584068789135
C        10.15874881420723    7.25380347004323    5.17922368456713
C        10.00771185381307    8.42472651723445    4.44352282504711
H         9.95653262117184    8.39304873302239    3.36368971839570
C         9.92978196451371    9.64568567258164    5.08881890989054
H         9.81281381239327   10.54902013535470    4.51074400055260
C        10.00349050615197    9.70822096717189    6.47066500706783
H         9.94279317122179   10.66141705284210    6.97174975326503
C        10.15607107376703    8.54586033019739    7.20687138310610
H        10.21496822638385    8.58902807273796    8.28320935355302
C        10.23224629170330    7.32231863923103    6.56365986688272
H        10.35262268550660    6.41715442953189    7.14095256763915
C        12.44296612046390    4.60416220532370    1.28258067246481
C        12.01873476375817    4.00871243330485    0.08401412225623
H        11.14647315778372    3.37001263930221    0.09574070004296
C        12.69027231301067    4.26862306553129   -1.07490835548445
H        12.36217070013960    3.82819761226178   -2.00445730200958
C        13.81637797841160    5.11908260965335   -1.08525193647303
C        14.52655575769843    5.40797556927723   -2.26792779358092
H        14.19270671772237    4.96725151260292   -3.19547704773594
C        15.61862086919987    6.23067427004151   -2.24011367646521
H        16.15927350391230    6.44746918934901   -3.14858902420035
C        16.04878444874728    6.80109542259284   -1.03143792022175
H        16.91363221422685    7.44669359757730   -1.02957241758799
C        15.38024791406917    6.54376354506780    0.13286705444560
H        15.70756294094314    6.98154943970860    1.06441516631116
C        14.25014942367368    5.69965353906036    0.13688536340354
C        13.54245690888258    5.41612641787614    1.32329458455146
H        13.88792460766952    5.85308002712525    2.24774987614166

