70
CSD_code = YONJIX | q = 0 | S = 0 | Stoichiometry = C33H30Cl2NO3V | MND = 6
V         2.31514756945502    7.16579058241230   11.87828099230826
Cl        0.64489155021714    7.05667958628585   10.27727276070254
Cl        4.10716534954853    6.50564586920652   13.10963089970050
O         2.25486274988891    8.74546408966811   12.00617723933168
O         1.98208995606412    5.04537789292285   11.82886901190279
N         1.09394529532064    7.00636379577739   13.25287551627179
O         3.68051340958191    6.93351927205434   10.15436404472280
C         2.78647681764363    4.18014262071873   11.11919326752029
C         0.94032889177292    5.73675515948184   13.79445919104738
C         1.71981630307261   11.10609699971282   12.07642589505556
C         4.16774544852174   10.77155076597501   11.56511873978615
C         0.61892525759179   11.97221988346974   12.18330857617309
C        -0.42962751845710   10.41311018481034   13.80764403960869
H         0.05063081663099   10.91726016403521   14.65398865320058
H        -1.36938518653818    9.98449330501398   14.15795157451261
C         2.94646230009223   11.59410288482903   11.59701762753891
C         4.58642362226784   10.06668798632927   12.69325076238852
H         3.98384883736936   10.08625634870058   13.59278314253311
C         0.74147096454256   13.29121259192812   11.78937292270217
H        -0.10976857398397   13.95167903909199   11.87007128385883
C         1.44193474914751    4.67025002032602   13.02217572190427
C         0.32885444070211    8.00458629435180   13.69137721688684
H        -0.46851346627967    7.77729071000177   14.39366196674614
C         6.17505180072663   10.07593979085453   10.42388633089130
H         6.79273938679185   10.07988969850662    9.53634673039750
C         3.82240558819162    3.47061765242328   11.71785634828182
H         4.00367901479698    3.57542867470076   12.77759515494402
C         0.47222470365275    9.32701573020438   13.28882866079010
C         2.57399164133947    4.10258814072054    9.74680782491499
H         1.77161685287357    4.68282381550456    9.31127015308141
C         0.37017714725636    5.44323466465710   15.03412270649959
H         0.03917780286531    6.24055327954068   15.68187939260109
C         4.42811016365417    2.58792244710453    9.56467341573846
H         5.07011496021736    1.96509885172164    8.95975382342226
C         4.97645365199230   10.76566920364807   10.43009088108583
H         4.65580942719892   11.30373849593182    9.54830763376334
C         1.51947168312805    9.70554247305358   12.43101271716153
C         5.78477450491999    9.37671503388635   12.68470091957395
H         6.09668461585890    8.83327590497217   13.56342131232580
C         4.63805984671502    2.67543404411734   10.93152751380426
H         5.44797225659337    2.12885849246261   11.39085116883137
C         3.03284955896253   12.92441768727722   11.19713798427576
H         3.97917748154707   13.30144233045645   10.83751952232656
C         1.29108950942867    3.35786861548362   13.44079272223528
H         1.63633912553519    2.54877756706387   12.81433860986643
C        -0.68320048999137   11.42394176128136   12.69270689393343
H        -1.20020637167502   10.91990446639958   11.86932322946914
H        -1.32105919276362   12.23473560841590   13.04742183787907
C         3.40034039633043    3.30588128597302    8.97444218753457
H         3.23838795945023    3.24190356028654    7.90849274245510
C         0.69621207998460    3.09257461138824   14.66360914306072
H         0.58610446911028    2.07047425930766   14.99069641615176
C         0.25739858794049    4.13329075952447   15.46342486063123
H        -0.18013261147893    3.92666969225141   16.42789440099737
C         3.50018060465074    7.71485722668853    8.98377242125603
H         3.92790335210712    8.71662961949846    9.14299129405874
H         2.42801747007111    7.79097304193938    8.79420669492647
C         5.04822822285209    6.54402087806356   10.15309117107696
H         5.14260024388913    5.63144456961915   10.74402745350820
H         5.64759147425614    7.33384489701366   10.62302008065999
C         6.58332251805300    9.38208545926372   11.55183428073339
H         7.52489155555572    8.85135059934800   11.55122204304672
C         1.94271855124557   13.76779685766082   11.28726571074363
H         2.02940910779760   14.79889567674165   10.97898473914575
C         5.44517815405062    6.35381510821114    8.67816448106940
H         5.58079324664389    5.30021236676851    8.44077859523713
H         6.37573705550236    6.87677394493137    8.46421314949212
C         4.26698210703481    6.95650981614870    7.90041718510551
H         3.63822870463616    6.16841425481316    7.48719879724988
H         4.58496249627871    7.61111103668883    7.09240761731778

