27
CSD_code = YONQEX | q = 0 | S = 0 | Stoichiometry = C4H12N10Ni | MND = 4
Ni        2.39822817532882    7.12799595958319    7.75490280044258
N         2.62018774083343    5.97895659122698    9.22124353454254
C         1.97586394924526    5.96517190208109   10.36680108782701
N         2.26767831503176    4.99297201613507   11.29539627355030
N         1.00395235308765    6.79029806254085   10.74511570593189
C         0.56741259422172    7.72805397247279    9.90925173762145
N        -0.49649779616109    8.45102135260598   10.39732617151407
N         1.02226138093482    7.98180070708689    8.70246402993768
H         3.31078576745199    5.22980400668987    9.17135274717758
H         1.87002103178154    5.14656645459038   12.20648722280997
H         3.17951252350624    4.56716938498128   11.27581823115806
H        -0.67443800826580    8.32734648439570   11.37959118755708
H        -0.66077072814260    9.37280500878897   10.02784541411045
H         0.50692903882807    8.74313533582430    8.26033371450127
N         2.17626761089794    8.27703887084169    6.28856004315165
C         2.82060536261578    8.29083147927198    5.14300938966126
N         2.52881643469728    9.26304116160152    4.21441690862591
H         2.92649914223782    9.10944617587947    3.30333513062097
H         1.61698665733318    9.68885394123698    4.23397310482713
N         3.79251100480406    7.46570110210146    4.76469389712833
C         4.22904438425702    6.52793868031428    5.60055123257628
N         5.29294744877038    5.80496962038464    5.11246056099713
H         5.47087539929415    5.92866630102232    4.13019508984066
H         5.45721333366355    4.88317495032637    5.48191722498595
N         3.77420065248470    6.27419121692094    6.80734115942771
H         4.28953301772069    5.51285436998738    7.24946722613407
H         1.48567321354165    9.02619489110761    6.33844917334094

