49
CSD_code = YONYEH | q = 0 | S = 0 | Stoichiometry = C20H17BrN6O4Zn | MND = 5
Zn        8.68954790106708    2.72176873736727    4.20880266572145
Br        7.68912066010434    3.28728038333360    2.23238643120291
C         6.18163147445310    3.68944859594148    5.51022072022440
C         6.96705832612365    4.88730467920415    5.28297521614894
C         6.68311781814966    6.24536668673269    5.20536258993720
C         5.41587819284558    6.97125898275314    5.41817239337797
H         5.60232953532729    7.97840518259517    5.78551446451187
H         4.80271024234868    6.42345624546839    6.12945860333410
H         4.85905958595881    7.03308976277732    4.48296297308263
C         8.23354727731498    8.14758217436359    4.71010435828837
C         7.40926213138875    9.00520482372920    3.99384486480845
H         6.49540663304423    8.64467779340016    3.55027302856800
C         7.79808240334806   10.32167713307498    3.81676538998205
H         7.16295314263996   10.99220519578569    3.25868520561287
C         8.99818233232615   10.77395536985251    4.33921010436261
H         9.29391965855529   11.80186593562302    4.19611547473818
C         9.82665906025227    9.90459296397794    5.03091123373036
H        10.76950942955077   10.25137702029470    5.42422759480512
C         9.44980812070535    8.58810898363916    5.21866023110900
H        10.08475166894965    7.89214636627071    5.74350096607383
C        10.95143094399375    1.63604659658869    5.27760570691809
C        10.00856393235937    0.47177860872132    5.08382288943492
C        10.09705510165027   -0.87452398356235    5.38101281834060
C        11.20439395917430   -1.61067888861595    6.02470099789012
H        10.82979477214977   -2.34348642803920    6.73804911497260
H        11.83718348467559   -0.88047597859733    6.52621426843854
H        11.81656149368045   -2.12127367850255    5.28107524501998
C         8.37597769675038   -2.67832451703039    5.07615064182678
C         9.18326477067329   -3.79267679995898    4.89014303031952
H        10.22643631318838   -3.68061293708066    4.64508233108423
C         8.62806554734711   -5.05645634792610    4.99172554925008
H         9.25413182807391   -5.92390126699502    4.84808426450530
C         7.27988317715432   -5.21054544101436    5.26600634649319
H         6.85513538505746   -6.19962973924150    5.34434924084279
C         6.47489864952210   -4.09441231504776    5.42908902098113
H         5.42122952731009   -4.21114021061920    5.63143020987724
C         7.01772967261724   -2.82729814725999    5.33596536685657
H         6.40852305816959   -1.94514478559390    5.45304778803342
N         8.29015651757825    4.72692646199680    5.02657273979336
N         8.82408757751753    5.85661725306560    4.81837033184349
N         7.88373602581629    6.79724689925017    4.90926996062658
N         8.79493425365720    0.69012265859702    4.54012216473677
N         8.12750710737698   -0.40419027047231    4.48984912315349
N         8.89180346211007   -1.37248731889236    4.98571684067961
O         6.67634917453012    2.58223902356621    5.44528302370860
O         4.89983307843020    3.88562279414884    5.79633160699689
H         4.44280635741329    3.03208203443429    5.87896386197146
O        12.01638805377672    1.45179013824232    5.83694658677004
O        10.50040348377239    2.73211356963734    4.81666441902347

