106
CSD_code = YONZAD | q = 0 | S = 0 | Stoichiometry = C31H65N4OSi4Y | MND = 4
C         8.33075193919410    3.39516584100125   17.91978407138879
C         9.63809147207544    5.31885828572482   17.61127496503252
H        10.57472593363871    5.39320285511132   17.05607755640344
H         9.64168648792194    6.08182892880354   18.39759616770798
C         8.40434819469966    5.39918762841026   16.71430074887525
H         7.78990470934029    6.28045290293942   16.91212560589358
H         8.66154111851026    5.38408895079566   15.64971666661037
C        10.39732793488379    3.58354565395601   19.23739792646505
C        10.02189863691179    3.75148667758713   20.57507289252152
C        10.91373147373050    3.35742707782526   21.56413542801589
H        10.64196274509476    3.46739421041262   22.60214860272241
C        12.14938830199232    2.83391903555403   21.23798042935456
H        12.83090338069393    2.53188672955449   22.01910085447022
C        12.51929522422387    2.70649583789741   19.91317951435629
H        13.49342993373736    2.31157364359043   19.67098616595668
C        11.65312689905158    3.07372093016419   18.89191270320672
C         7.87060072889328    3.42653799147628   21.80978187217191
H         7.75054417623622    2.47150728458233   21.29023440484653
H         6.88496580536977    3.84968202312617   21.98733050496271
H         8.34514582241767    3.24488278854659   22.77100319987309
C         8.70607706045240    4.38468811036984   20.96177636187752
H         8.12539513932970    4.60276559461719   20.06044981182618
C         8.94966451999288    5.70440238252581   21.70218539750003
H         9.46920770060204    5.53256838169430   22.64130522951370
H         8.00041362535945    6.18801744096800   21.92072681203430
H         9.55371364059496    6.38261551200109   21.10137769503104
C        12.53870855833860    1.51846670121620   17.12183480968736
H        13.42594956574215    1.24243373629113   17.68526319076610
H        12.77144890207889    1.44238156293367   16.06201154697471
H        11.74798284946537    0.81041437553259   17.35224786726370
C        12.09078033505401    2.94329923364630   17.45141593982910
H        11.24281469891990    3.17580625954778   16.80195812227138
C        13.21896662310426    3.93783153319826   17.15703099547071
H        12.92103539559913    4.95370828984856   17.41092072626368
H        13.48140759177328    3.90636788224745   16.10187306099999
H        14.10523731060561    3.69342276666024   17.73724178348957
C         6.35431658492165    3.92695722267474   16.56643224732661
H         6.30598755864797    2.91595663650098   16.13573527564727
H         6.12681432102435    4.66652184272557   15.79584096166550
C         3.90983513764065    3.76578442138738   17.08712207005764
H         3.88579743968777    2.79370386135947   16.60282310297609
H         3.68075610186189    4.54102466207932   16.35942895847166
H         3.15641142991924    3.78104848715593   17.87031404815893
C         5.29618322228091    3.99297673181359   17.72315653553947
C         5.32609518386462    5.39899383395967   18.36397833764122
H         4.55114469544724    5.45184595619286   19.12342182328280
H         5.14956718378103    6.17527042023660   17.62256458629836
H         6.28280915228267    5.56691285825333   18.85344058217090
C         9.91962060588543   -0.06481993169396   19.36639552172637
H         9.55903387109288    0.43142350346094   18.46205407453255
H        10.68718359365679   -0.77408004043701   19.07271714240062
H        10.38917005375051    0.68095928860321   20.00092238119446
C         7.90628940949199   -2.41911364086419   19.18309269787563
H         7.16460222246351   -3.02105670534583   19.69832407025019
H         8.72822983995121   -3.07443838889396   18.91129539027940
H         7.45594446935542   -2.04933378771888   18.26549834100456
C         9.22186406075829   -1.67329849883574   21.87400198446997
H         9.54643139864705   -0.88889775065301   22.54814565213243
H        10.08001834722473   -2.30159336696419   21.65825133357628
H         8.49370802376992   -2.28043231863005   22.39906335926119
C         4.70049742568818    1.41104362326136   21.44878553540631
H         4.57861879772499    2.00078885448997   22.35196721164124
H         3.73399607413523    0.97436404362641   21.21829906621187
H         4.95937319680179    2.09532034594579   20.64014792537899
C         5.17743732368702   -1.66156407811265   21.72589215837848
H         4.71220825491609   -1.92041386891260   20.78023374257179
H         4.40801983432239   -1.69906229720524   22.49084531622269
H         5.90297452695140   -2.43548525567685   21.95381035608962
C         6.71820737332070    0.26326493821407   23.47095402234008
H         7.28270543435717   -0.61064123811366   23.77385571031452
H         5.90665075337081    0.38874302127827   24.18132176017215
H         7.37185086817058    1.12307037619987   23.56267210156990
C         7.19514224732305   -0.03645819315676   13.65777194065892
H         6.56696214380570   -0.91310078888475   13.55098896660646
H         8.00230770900051   -0.12041269128845   12.93694538832153
H         6.59710532605540    0.82608695260277   13.38464140714857
C         9.11612452492814    1.55535875345577   15.39426361504089
H         8.67258645308612    2.45899349439868   14.98835344743208
H         9.96483819146595    1.30004678928786   14.76809660385194
H         9.49441552779231    1.77807733240749   16.38704440840675
C         8.91314990712393   -1.48228200343716   15.73208238256518
H         9.44128385106283   -1.45112499597519   16.67933060378051
H         9.65154429343060   -1.61127381443597   14.94614610461776
H         8.28501760461620   -2.36650789759277   15.73825587163956
C         4.02603458715344    0.38534862939128   15.09065742298578
H         4.34722716764932    1.38292576650826   14.80822826778618
H         2.97970949451294    0.44198986269719   15.37527004863257
H         4.08778786156923   -0.23447783139683   14.20300179866624
C         5.11732403377271   -2.23910005079811   16.19292435193993
H         5.69030484795403   -2.47653431843089   15.30338723408901
H         4.10986108236475   -2.61454970919505   16.04416704003055
H         5.55368626518500   -2.78749870512789   17.02088324943675
C         4.21904240257757   -0.05172045650804   18.17041020435077
H         4.77311689389965   -0.52489952347093   18.98103023001198
H         3.21862683627296   -0.47675535488657   18.16861982860425
H         4.11945360601749    1.01266535050885   18.38845027879927
N         7.68255817367522    4.17636974842399   17.06434814667706
N         9.49678085200672    3.98757227892971   18.21472289645357
N         7.23599402929465    0.23222216514189   20.45865394843580
N         6.66418428834764    0.39288815481231   16.64122315018172
O         5.56570851794759    3.03634520342240   18.67827581501164
Si        8.47570915664208   -0.94852842385008   20.27194678541205
Si        6.03462482403187    0.05569360862435   21.68893885650088
Si        7.86686733247151    0.09959022810331   15.44532247729763
Si        5.11226252978472   -0.34889873936131   16.50272018499302
Y         6.90792923117351    1.48887037700134   18.61243202788274

