70
CSD_code = YOPCOV | q = 1 | S = 0 | Stoichiometry = C24H34Cl2O9Sc(1+) | MND = 7
Sc       -1.56914944502606   -3.57602819757976    3.75390894055747
Cl        0.57313571273533   -4.07971470496648    3.08399090247178
Cl       -3.60822298882526   -2.52675311852667    3.91293774170181
O        -2.34473794256268   -5.44363378360088    4.50274912558331
O        -1.16026661812645   -2.47874229170966    5.82465453602112
C        -0.01489649821790   -1.62150514932697    5.79020932809655
C        -0.33728952817744   -0.52859660339479    4.77760883868041
O        -0.72470501617555   -1.19143999938984    3.58157716436263
C        -1.01841822174793   -0.37451200180905    2.49959977839027
C        -1.40415562874782   -1.05264577286984    1.33117265046457
O        -1.46915101640763   -2.42731705601694    1.45126731262663
C        -1.73797403110628   -3.16133127413843    0.26334176983673
C        -1.72611682137578   -4.63305248361257    0.68581566176418
O        -2.52008826791233   -4.77893913192544    1.85981006614056
C        -3.92805229885639   -4.90574830107913    1.59829313143237
C        -4.36572380092894   -6.35588334878063    1.78072318180407
O        -4.43120939683548   -6.61745034884941    3.16804076393073
C        -4.67336882631739   -7.97699249830264    3.47173098079574
C        -4.77535359216414   -8.13781925640813    4.98430345309880
O        -3.52263146524995   -7.81018218882488    5.54912397915894
C        -3.12226873073216   -8.45697859382342    6.69042065973736
C        -1.76156646107560   -8.30750375878008    7.02112489066610
O        -1.04040190577037   -7.46271557759397    6.20266831435191
C         0.29284001295877   -7.17084974111759    6.57384661904398
C         0.73518719392473   -5.93095806603319    5.79428035079202
O        -0.18827126949832   -4.86207850595830    5.91111788925054
C        -0.26945377605467   -4.26699437724231    7.19327342697057
C        -1.33133752486129   -3.17212118099024    7.05254286546535
C        -1.68847692870908   -0.33550838171590    0.18233652073825
C        -1.60508233762994    1.04998390532696    0.19159255941720
C        -1.24234111082001    1.71622011143804    1.34255364735705
C        -0.94719884704322    1.00721920476183    2.49921828732373
C        -3.94107088437510   -9.21715185479658    7.50719090460637
C        -3.41738670118221   -9.87078920562307    8.61327767326377
C        -2.07382703464628   -9.77156732485730    8.90234717003007
C        -1.24688958264389   -8.98558589159523    8.11160682514509
H        -3.15807938642630   -5.87744684833735    4.14153453803081
H        -1.96734187973448   -6.13734285714456    5.08801093251677
H         0.87218371448011   -2.18384784791224    5.46334808949219
H         0.15889375782437   -1.17565846235087    6.77631305963470
H        -1.17336633846562    0.08306880445995    5.14416443526992
H         0.54755209927414    0.09591378269580    4.60285046765348
H        -0.96628279547182   -2.97086095444210   -0.49197409932639
H        -2.72469672275550   -2.87732397077778   -0.12774756060047
H        -2.08541239468721   -5.27864270339503   -0.12234161708457
H        -0.70783602980188   -4.92269128454513    0.96974245793069
H        -4.16543202493711   -4.57019805952634    0.58670078829941
H        -4.45667043680534   -4.27631779761214    2.32360564039629
H        -5.35181420651628   -6.51377945384779    1.32403016021795
H        -3.64181732557024   -7.03417949726237    1.30434185854497
H        -3.85039966638887   -8.59716462914544    3.08859315841542
H        -5.61231267718831   -8.30635164910405    3.00857774479139
H        -5.54943139497410   -7.46824986967922    5.37828935728940
H        -5.04556133908106   -9.17695804802825    5.19518883822713
H         0.95800279086428   -8.00782066860521    6.33029610288425
H         0.35225409246263   -6.97849772155654    7.65204438750996
H         1.73048223347585   -5.62313159828200    6.13818918285873
H         0.77831619789846   -6.14227798785196    4.72386975442868
H         0.70772264665673   -3.84717723884860    7.47542760405045
H        -0.58269475756075   -4.98401093321340    7.96144526832588
H        -2.32849802590056   -3.62152153640883    6.98656256588103
H        -1.29346847234750   -2.47470698480701    7.89842453911382
H        -1.97749694194328   -0.83352931258586   -0.72787417684591
H        -1.82975501420386    1.59889848066304   -0.70849021841997
H        -1.18322014029397    2.79248217707976    1.35407456114715
H        -0.66695436401493    1.55302636203031    3.38420062807755
H        -4.99550050951419   -9.30172125540484    7.29957385983439
H        -4.06880571335115  -10.46106237534126    9.23732482900620
H        -1.65519181802505  -10.29678514564707    9.74557532188982
H        -0.19804557682144   -8.92896616556506    8.35316962950130

