103
CSD_code = YOPCOX | q = 0 | S = 0 | Stoichiometry = C42H56N3PRu | MND = 8
Ru        8.59915062797784    7.77844988118000   13.39193735492220
P        10.80282254919889    6.90864738690010   13.57765345755929
N        11.56186170466859    8.07953702436557   14.44741096209477
C        11.12269667173980    5.36885862951087   14.66116209565028
N         9.52217442212810    9.18945935026828   14.78526591681016
C        10.25084469865173    5.60963304155166   15.89471198600285
H         9.28681262960941    6.03289176279876   15.60819875211617
H        10.75377957893017    6.30967608810454   16.55863295580003
H        10.07853811720555    4.68313779558418   16.44270577334330
N         9.36520615843994    9.53164826185165   11.02678505490692
C        12.56585873100977    5.24921313374878   15.15198717320477
H        12.99326350024027    6.24354485313054   15.26667525813473
H        13.18848616443525    4.66950128560304   14.47996381378727
H        12.58078377058019    4.75236809929414   16.12229090333156
C        10.65851845254910    4.11477324193493   13.92722997628514
H        10.51676226268594    3.29027448801510   14.62701308317004
H        11.38088367238803    3.79543414910461   13.18079704635595
H         9.71819038024616    4.31276480564673   13.41721624305409
C        11.89178561848717    6.72614943342341   12.01745042076088
C        13.14310499857932    5.86137874216527   12.14385803741918
H        12.91276508006119    4.81507299618132   12.31565702960575
H        13.78439694426520    6.23113283454353   12.93757552960298
H        13.69925167775853    5.92145222741228   11.20721404210856
C        10.99202483473607    6.16553148604899   10.91657934453214
H        11.49961002441120    6.20317441170568    9.95316766422544
H        10.07316840995919    6.75035339339030   10.85291794357292
H        10.72615872159751    5.13130539667931   11.12468571892510
C        12.37030530587323    8.12801699797248   11.65067056085261
H        12.94563370669952    8.10217515482628   10.72563927259476
H        12.99745174870873    8.52157223334950   12.44747706494881
H        11.52984876734424    8.79374147434197   11.51488918112882
C        10.82656514593168    9.03811178064596   14.97736511657449
C        11.59819393186368    9.99335673622676   15.81337968570280
C        11.39082847224776   11.36664231470056   15.75228168303872
H        10.65000158978933   11.77169449975788   15.08251199701160
C        12.14167917565797   12.22265172374583   16.53749608391025
H        11.96902685597003   13.28772905672319   16.48191187787388
C        13.10961585263133   11.72159751339075   17.39065487466146
H        13.68941171423257   12.39253547055528   18.00767590096709
C        13.33689943097693   10.35619786018655   17.44289178551725
H        14.09811128376184    9.95935459591766   18.09924538195706
C        12.59057772811715    9.49945817629753   16.65648722793620
H        12.76384891861244    8.43452844168755   16.68861470238429
C         8.77211712327127   10.07501400204217   15.58173697723947
C         8.06740096022962   11.15804333129383   15.01971796698863
C         7.32117731153762   11.99629854660817   15.83544195795471
H         6.78995685161777   12.82295287249751   15.38395568830598
C         7.25396815479004   11.80377564065807   17.20138035875850
H         6.67384369780571   12.47031369211853   17.82193505456978
C         7.93754707573427   10.74151047616655   17.75769696527481
H         7.89055008192087   10.56895980385988   18.82384093947579
C         8.68647182271110    9.87565322786839   16.97464745225785
C         8.11854189753249   11.46196608365556   13.55494059704249
H         7.29070474945251   12.10727024035678   13.26889472887097
H         8.07557184643702   10.54082711990787   12.97623573279702
H         9.04515097046540   11.97340001553930   13.30042180635341
C         9.37470429793884    8.73145773690942   17.65299104984827
H         8.79373576154129    8.39541480297296   18.51044831170832
H        10.36013564454124    9.03365471395248   18.00951362283625
H         9.50223807388934    7.90468946817086   16.96312924607886
C         7.14627416914173    6.04512657723620   14.11475705304662
C         7.16217049087769    6.19728336960284   12.67783248364483
C         6.62218204450352    7.48913407974747   12.37777216816083
C         6.39245172703224    8.17633189657068   13.60827400144120
C         6.71515604040646    7.26550758552618   14.67758938974243
C         7.13221547278139    4.72244063436978   14.82554663415692
H         7.27274904904988    4.83834883095400   15.89787341668813
H         7.88572901344932    4.03423543495425   14.45306632957799
H         6.15333125241862    4.26161345263094   14.66545466148950
C         7.24850534484133    5.06255744208826   11.69747007820760
H         6.25124332604721    4.64721368569734   11.52992825805537
H         7.88638457259615    4.26291540065563   12.06726467756246
H         7.64240741972787    5.39497455843644   10.73864033661240
C         6.14122061887299    7.93583746094500   11.02869266029791
H         6.71175129039503    7.46652785950934   10.23045812647476
H         6.21299894066930    9.01634320958119   10.91906569946544
H         5.09278541131761    7.65078949977212   10.91079662135288
C         5.52288217068269    9.38579567006495   13.78041483062512
H         5.52990624678387   10.01004825798134   12.88989474093417
H         5.83909044706602    9.98926833983024   14.62892752326796
H         4.49381272904094    9.06351455828892   13.96127984497684
C         6.34105233653941    7.49471485076291   16.11095540428027
H         5.28274820865855    7.25855008975888   16.24973284265440
H         6.49460351501233    8.53359098231973   16.39862888299576
H         6.91958459906040    6.86553466826090   16.78525567594915
C         9.18600693081451    8.84619658683142   11.97998575832651
C         9.84308309444220   10.46316130731153   10.16262233968272
C         9.36466964464609   10.45226895535535    8.84208204878755
C         9.82802510922874   11.40520302906681    7.95349206097006
H         9.46215492656658   11.40231596608596    6.93691851013011
C        10.75423689018646   12.35416866608366    8.35254944486931
H        11.10765308091572   13.09443185699763    7.65071767879076
C        11.23123153209755   12.34480952894331    9.64959583351522
H        11.96226912180426   13.07760557637307    9.95963921432370
C        10.79603905284354   11.40833443862292   10.57650202755027
C         8.36775936811501    9.41776508562565    8.41846947990447
H         8.65155168143610    8.43811460917044    8.79993463072994
H         8.29993777197617    9.37131741971236    7.33459825015801
H         7.38091485827314    9.65819597419472    8.81422304831512
C        11.36712648934667   11.43625810119448   11.96271380795640
H        11.25662457247681   12.43176056446066   12.39254291009102
H        12.43339693249237   11.21426682510313   11.92846503342470
H        10.89406615297651   10.70909710827735   12.61881119007639

