40
CSD_code = YOPJES | q = 0 | S = 0 | Stoichiometry = C17H20Cl2Hf | MND = 12
Hf       -2.16682275451993    3.03392864654873   16.32633364713218
Cl       -3.91087000265456    1.97683469044186   15.26698771725030
Cl       -1.99242233599723    4.59366046049356   14.63768079452483
C        -3.85814144261685    4.23402789733225   17.85220927512753
H        -4.90487193525505    4.45046312910406   17.69537182665138
C        -2.80006182469008    5.14783747036490   17.67034975532214
H        -2.90127247485415    6.16909213842669   17.33339468146323
C        -1.60784905533294    4.55104183561918   18.13532943027565
H        -0.65920978064865    5.06046867220553   18.22736040842923
C        -0.97464226917987    2.10190568816693   18.87040138635123
C        -1.72651788933840    0.91563922562245   19.50789021997269
H        -1.14444831683525    0.00650674619435   19.33971998932999
H        -1.75688940296174    1.07952580774303   20.58688364387327
C        -3.16227161543337    0.68729274040800   19.02009896504815
H        -3.59266243405288   -0.12348528769746   19.61309282134648
H        -3.17985512360921    0.37264831611217   17.97394067757464
C        -4.06347158470611    1.92731196300588   19.12709344381786
C        -3.33089366539423    3.06313833567462   18.45781604101550
C        -1.93423936191310    3.26548383802468   18.65124888331674
C         0.21495214128811    2.47868241880325   19.76122628594942
H         0.87392374145830    1.62209112607632   19.88351575882969
H        -0.13454273207611    2.79412013756511   20.74178322515847
H         0.78966461775135    3.29216841453728   19.32906626570182
C        -5.41078425512493    1.63401307310914   18.46297570077310
H        -5.86516976290469    0.75680489995809   18.91848625286670
H        -5.28683299283573    1.44798341995347   17.39842385557519
H        -6.09135080352717    2.47144035890539   18.59187592996138
C        -4.30637556124337    2.31146421738907   20.59565353143486
H        -4.76816632154016    1.48429603174013   21.13025607335067
H        -4.96884613520501    3.17191239500217   20.64890317336530
H        -3.37585007664091    2.57551739820354   21.09023538406230
C        -0.52165808442272    1.79903025558264   17.43895949982348
C        -1.09652335781108    0.84959732982584   16.54633306430493
H        -1.57470448452357   -0.08107983260234   16.81135397833150
C        -0.67149025177078    1.16058900091254   15.23281290558730
H        -0.84509613056439    0.54914096689823   14.35958571598051
C         0.13810539342050    2.30424395349478   15.29128743618279
H         0.69051195981884    2.73314017366099   14.46869915894209
C         0.21730446585051    2.71879386782506   16.63795311231592
H         0.87274190058826    3.49902807936747   16.99851008367320

