46
CSD_code = YOPJIW | q = 0 | S = 0 | Stoichiometry = C19H26Ti | MND = 12
Ti        0.09500541420726    4.06113408445741    2.06997266891231
C        -1.96193495592318    2.62476717894040    1.93350697646382
H        -2.94265093199940    2.75938574631524    2.36883314459439
C        -1.57982321618774    3.05600116301845    0.64659613222507
H        -2.22693680977079    3.54994343841935   -0.06721930866624
C        -0.28487770328163    2.56233469166177    0.38260445259141
H         0.22494016375678    2.63445274234292   -0.57096971134793
C         1.55096284693353    1.45240493882194    1.88812179585718
C         1.56560249812630    0.50355063784068    3.10417364753149
H         1.43996940809286   -0.51411082472526    2.72581424237209
H         2.55286571220247    0.55213306758881    3.57216048155950
C         0.49908811690264    0.74157154810019    4.18071321964343
H         0.52288213819618   -0.10933216851217    4.86774453374442
H         0.73709141574996    1.62909822258871    4.76759044932697
C        -0.93064980159076    0.90692453386592    3.63983299469052
C        -0.90518573070607    1.86183237494969    2.47452872307619
C         0.13014405118119    1.81663277389590    1.51211928400564
C         2.33025209659539    0.78996247258293    0.74614671874907
H         1.86988062110250   -0.15985758230219    0.47912591086845
H         3.35775823574044    0.60451695841929    1.05416873619685
H         2.34747804252315    1.41472374777750   -0.14239710265441
C        -1.45752266939618   -0.43933405442072    3.11127299606853
H        -1.47176585937097   -1.18073680052499    3.90803469495664
H        -0.83378417374521   -0.80675957650120    2.30069041189616
H        -2.46905444853751   -0.32034212576572    2.72947207793303
C        -1.85048096179747    1.37824238150021    4.76902977932478
H        -1.56316855981750    2.36825952976915    5.11642769052753
H        -1.79565297792476    0.68679883687792    5.60814642354225
H        -2.88247883451802    1.41899251777748    4.42967830969335
C         2.05846070153168    2.85955247846063    2.18189478502372
C         2.27025156542572    3.83150541708439    1.17173247201718
H         2.47887733733641    3.63958352508714    0.12702581755149
C         2.34033371711857    5.09995097879918    1.77180667431206
H         2.60668488831141    6.02197512779809    1.27298088422407
C         2.14354803171342    4.93641474052659    3.15226694661074
H         2.23893376681313    5.70861144512247    3.90476036234744
C         1.95815574449936    3.56056072823741    3.40610272131093
H         1.93938820534947    3.13551417730637    4.39906728515391
C        -0.45062813146762    5.75170041101279    0.98844690392315
H        -0.10197025250207    5.64389446338006   -0.04772803093851
H        -0.00766723176947    6.66984273653335    1.39142798194073
H        -1.53621042195535    5.90475232383194    0.95907240344522
C        -0.84770265796862    4.87971112813893    3.73099366986473
H        -0.61077626290543    4.30437155461609    4.63506920052401
H        -1.93977461503837    4.90774592433054    3.63484348530932
H        -0.51695751123563    5.90932238497303    3.91701606369692

