65
CSD_code = YOPPEA | q = 1 | S = 0 | Stoichiometry = C28H28N4NiO2PS(1+) | MND = 4
C         7.95717596427163    5.20444133130785   10.71393822471894
C         7.70636630824460    6.59590942323725   10.83204240121407
C         9.71178533984640    7.11177681892443    9.69193224131748
H        10.34260031485479    7.90617061277292    9.32967526467477
C        10.02698119203121    5.78736741978821    9.52361226917449
C         9.14434887599690    4.79410197610677   10.00935089349619
C         9.41827569365652    3.41882844165182    9.79618732915921
H        10.29154863657584    3.15967842110150    9.20789688809132
C         8.47699485009921    0.17536279217397   10.26164187264182
C        10.01304273076251   -1.40319351576150    9.17874962469125
H         9.72293084038711   -1.99339497601859    8.30811679063269
H        10.71752471102190   -1.98247160362923    9.77857492628477
H        10.48609407948679   -0.48099305493785    8.85209453380496
C         6.48244429586709    7.08561347798053   11.51584299785200
H         6.57980820519778    6.96304026505520   12.59537091064913
H         5.62970921388142    6.48013346248498   11.21300416084003
H         6.28993542245762    8.13200035987976   11.29363035421232
C        11.30503039147196    5.42972342071911    8.80560425005253
H        11.84931048265353    6.35245682356959    8.56868619624821
H        11.93718303174934    4.82039850196292    9.47060159776115
C         4.58000662905607    1.32082201675244   13.45154882887303
C         4.55649901330693    1.47319115385626   14.83339114753015
H         4.90266784868377    2.39123995351253   15.28599205844525
C         4.07846486305880    0.44758962463313   15.63054598586287
H         4.05611533742021    0.57097094610278   16.70282082852378
C         3.63199180338632   -0.73161725944472   15.05806590013363
H         3.26213441127681   -1.52895488839226   15.68428759900553
C         3.66276024795837   -0.88916120309896   13.68081577698370
H         3.31705420424045   -1.80850453238509   13.23313079050416
C         4.13819717795200    0.12963488175301   12.87843023807978
H         4.16918479250069    0.01111546401988   11.80394124663527
C         3.92643284402271    2.70823249409402   11.06017067446291
C         2.56825407639963    2.60991809013736   11.34930415228962
H         2.24289865175117    2.46345734083339   12.36989926757873
C         1.64490089559897    2.68232362336902   10.32184258348344
H         0.59080766941235    2.60724268592746   10.54230462338505
C         2.06838817810924    2.84223281947082    9.01106573437327
H         1.34184677997897    2.89303289753089    8.21465954368404
C         3.42070273610497    2.92339268059385    8.71815000168575
H         3.74808040039211    3.03281100124046    7.69526039785271
C         4.34755016221535    2.85491925581044    9.74178860685936
H         5.42036599167739    2.90193045386524    9.53131973412353
C         5.06873640408609    4.13621383492002   13.33228107434686
C         6.12315975417911    4.41341635221747   14.19941639887308
H         6.97569713972055    3.74444117390908   14.22168131868279
C         6.08062159424485    5.53145639435409   15.01102960285271
H         6.89491932133023    5.74026591067171   15.68913411360855
C         4.98706785510411    6.38332584764709   14.95374874757827
H         4.94910110466161    7.25490901064118   15.58947952650357
C         3.94554207748965    6.11842416306627   14.07956512101399
H         3.09809961642068    6.78557823396346   14.03292086904665
C         3.98275695062503    4.99829075818592   13.26543344455261
H         3.17087342316206    4.79876678045769   12.58165144957817
N         8.57747291415452    7.47205411832689   10.32437622943299
N         8.69574018435673    2.40728652891588   10.20640136679419
N         9.16614630233683    1.21259424394838    9.85338023712636
N         8.84997198138105   -1.06564184391764    9.95889864309014
O         7.11701318940451    4.39577823741290   11.22924634423544
O        10.98504121297104    4.72031947217677    7.62961268615103
H        11.78173875192143    4.59509807990364    7.10330875713721
P         5.20849858245127    2.61788731613388   12.34310980337747
S         7.03902736146130    0.36487603153581   11.22908206664482
Ni        7.09061061790687    2.51218588352231   11.23779199940523
H         8.27897074106937   -1.81834327203758   10.31381778538910
H         8.36649762431500    8.46054684571373   10.42094296729144

