89
CSD_code = YOPSOL | q = 0 | S = 0 | Stoichiometry = C40H42N4O2Pd | MND = 4
Pd       -4.05387114086911    2.51661250318979   11.30999491715728
O        -1.75015937598557    6.40047553476296    8.47885853180555
N        -2.15724023695705    3.02998547180577   10.80027198804448
N        -4.15135082375716    4.40719441051922   12.05194034358665
C        -1.97625044192511    4.14030883880545   10.15629799927051
C        -2.83101360688251    5.26581404153316   10.24946400413109
C        -3.77273242171408    5.39245031761441   11.29538445290202
C        -2.56011402161718    6.38428588871129    9.38655594068523
C        -0.16477930255691    1.81969921671230    9.98845824304436
C         0.70530013035651    0.75125678233417   10.14563487509209
C         0.53579704722912   -0.11336976955370   11.21818907317887
C        -0.48391829480748    0.07529493245453   12.14467914244182
C        -1.34067955321192    1.14873521435720   11.98015484401677
C        -1.20163531045143    2.02186593461268   10.89594815938190
C         1.81658124969397    0.54748030259883    9.16171030335875
C        -0.65171584302598   -0.85653519751553   13.30673411444422
C        -5.74626567466933    5.63571326757112   13.48169306205293
C        -6.49957717599667    5.66407676466424   14.64530858423496
C        -6.40389273752720    4.61135981798745   15.54542829758745
C        -5.55926352936792    3.53309046475111   15.30923980857545
C        -4.80442771494595    3.52358289452690   14.14860382937544
C        -4.90167887955683    4.56021787543410   13.21523566107147
C        -7.40677122172866    6.82696971851465   14.91107389370308
C        -5.46839411011810    2.38564505133513   16.26811204138453
O        -6.37661554770763   -1.41350013587769   14.08280905326416
N        -5.94699240860016    1.99842004501563   11.82552494670183
N        -3.95769229530420    0.63267347628067   10.55308496305448
C        -4.33836585946737   -0.36399597889042   11.29290415444001
C        -5.27956752863204   -0.25018508894877   12.34052540049374
C        -6.12798662643975    0.87819692223115   12.45285878080473
C        -5.56123858846004   -1.38360386561244   13.18039151397795
C        -7.93148348422453    3.19859657664339   12.66961416861446
C        -8.80932948354780    4.26333752383642   12.52831836642841
C        -8.66016421293295    5.13097068034859   11.45582106065054
C        -7.65217569356519    4.95032849304440   10.51438051386084
C        -6.78713293194900    3.88170356897683   10.66386609099011
C        -6.90699853767010    3.00444360103162   11.74715973411953
C        -9.90095238959954    4.45942215703958   13.53558361471226
C        -7.50745138859256    5.88725835690309    9.35333961083100
C        -3.31130618627610    1.54928858201271    8.46876372740993
C        -2.55277853494593    1.56379408493941    7.31054752973555
C        -1.69981578580724    0.49543445410625    7.06048152263992
C        -1.59990831540609   -0.57132281489494    7.94385735396442
C        -2.35557003432426   -0.56606103931703    9.10617814365553
C        -3.20766273109380    0.49987627041638    9.38719687384547
C        -2.64841557813078    2.72630158494116    6.37044691401608
C        -0.68854362025768   -1.72534620853700    7.65561395983678
H        -1.07002639571829    4.30695927616412    9.57299343413245
H        -4.10640792107904    6.40758010709388   11.51898687882986
H        -3.19017733484329    7.27584322993553    9.58858452063569
H        -0.05543771233415    2.46675895542172    9.13169599633024
H         1.20681160837538   -0.95285682558845   11.33455200702568
H        -2.14431192767824    1.33163703956250   12.70121363489814
H         1.47363623580965    0.75502053185917    8.15069397239708
H         2.63870188596249    1.22862569604125    9.38375445971332
H         2.19806243363134   -0.46959285889512    9.20581535748781
H        -1.69796896405977   -0.92871813663021   13.59707178446577
H        -0.28061253846631   -1.85011660311894   13.06601975605919
H        -0.08896187124541   -0.48712427180861   14.16461946243943
H        -5.85820897742492    6.43462858200963   12.76422713413990
H        -7.00260031362496    4.62783392273339   16.44519635116714
H        -4.11941991779443    2.69394892267667   13.94515561589967
H        -7.98236057351057    7.07018049799141   14.02003565176474
H        -8.09217107427891    6.61118817356858   15.72663330518314
H        -6.81965007472695    7.70510907937830   15.18130469573524
H        -5.74488728075612    1.45493889431301   15.77298771802984
H        -4.44778940204096    2.27492616258927   16.63263765183370
H        -6.12616644089120    2.53436323873471   17.12044913893215
H        -4.00759658211882   -1.37602721586670   11.05159209625379
H        -7.03370885584218    0.70600400581396   13.03549109621146
H        -4.93578707041108   -2.27491371421631   12.96341928356032
H        -8.02578369173776    2.54853499677224   13.52592647854539
H        -9.33716433392422    5.96705947355977   11.34990512399464
H        -5.99283422005573    3.70481304867581    9.93154618982077
H       -10.35943352803790    5.43953034856955   13.43240806547183
H       -10.67447326932164    3.70367341445174   13.39931324613812
H        -9.50771682946383    4.35613651068135   14.54466069935180
H        -6.47090379477983    5.94298993687624    9.02731001659013
H        -8.10680134154647    5.53494955064861    8.51328390256633
H        -7.85190813936478    6.88555636459806    9.61372763666044
H        -4.00387406999032    2.37028822127298    8.68262943701739
H        -1.09765574492420    0.49720197941245    6.16293139654906
H        -2.23989638214496   -1.37421968085996    9.81271105108264
H        -1.99418851692617    2.59169473109902    5.51314795836688
H        -3.67059178888182    2.84237103356135    6.01257587596414
H        -2.37010124444093    3.64921932787127    6.87908859081126
H         0.05037962253214   -1.46226746760756    6.90305158814695
H        -0.17509459215118   -2.04147864505549    8.56113922422640
H        -1.26611831644650   -2.57219135766537    7.28347240694209

