77
CSD_code = YOPXEH | q = 1 | S = 0 | Stoichiometry = C30H42N3PRh(1+) | MND = 6
C        16.36417195710285    0.72763013415401    4.63260150226145
H        15.46755249179936    0.15814776349227    4.87626584538794
C        17.07464309039739    0.34539006273228    3.50331832278559
H        16.67256106369464   -0.49340289294719    2.93633628211253
C        18.55907912176315    0.56044854013416    3.31038105474820
H        19.05715011124495    0.49656535904867    4.27742240671255
H        18.95483432623951   -0.24737208653962    2.69383494300742
C        18.87531358410325    1.89949917855968    2.61731825681489
H        19.87643255184749    2.23788498931939    2.90105998928145
H        18.88583955745837    1.74569136307520    1.53554291196462
C        17.88544999995580    2.99613729368721    2.92557917411669
H        17.82522493408723    3.74694311792807    2.13698647633899
C        17.40836558470108    3.29867788072511    4.17978263188978
H        16.94908560956642    4.26843668713775    4.35760040115325
C        17.86466081998832    2.61164243205221    5.44281159082395
H        17.87895327002792    3.33846579583809    6.25628648191359
H        18.88283214474226    2.24756584020294    5.31630542667591
C        16.91490010708504    1.46645623599083    5.82398879307895
H        17.42335126913971    0.75237712252468    6.47926529474104
H        16.07261658964459    1.87625444283935    6.38853653301869
C        13.68852520459788    3.50187658047957    1.57025015211426
C        12.91272370193061    4.56738256495984    1.08512741871587
H        11.94885352531080    4.36338345772764    0.64981370524847
C        13.37813612103676    5.85619823842480    1.17121141065857
H        12.78757831943941    6.67858792394187    0.80063350094411
C        14.62404450561531    6.06981743192385    1.75011729031597
H        15.04344138059875    7.05795278184254    1.83397754510563
C        15.31687614064497    4.98315107784477    2.22974365313285
H        16.28049211694462    5.14752249299520    2.68473584921907
C        12.17038959135842    1.98710230789141    0.52476577681546
C        10.88626990780253    1.62365068921628    0.90847149685012
H        10.62097314621238    1.53622781684430    1.94922980171208
C         9.94529507334047    1.41573639453805   -0.09030895580725
H         8.93713967232162    1.12920863574804    0.16781791699216
C        10.31202893911353    1.59516887404973   -1.41431150201059
H         9.60647976106909    1.44436652976162   -2.21447702056174
C        11.61417880337349    1.99099901925661   -1.68478924701349
H        11.95744021245605    2.16337309741476   -2.69536098519674
C        14.73185249309123   -0.07711663935158    0.71769961169144
H        15.39842079641421   -0.82244737433404    1.17312031149156
C        13.69992842333643   -0.83369963808616   -0.11634669525194
H        13.10437529409579   -1.50305695298382    0.50721742962796
H        13.02437980756864   -0.13841979966927   -0.61013835561439
C        14.42892007141729   -1.64595861147003   -1.18792720539667
H        15.07624732543293   -2.38524600837521   -0.71049594536110
H        13.69838322093772   -2.18475766953466   -1.79315259001937
C        15.26753351298165   -0.73198063023944   -2.07664286040708
H        14.61165980960292   -0.02371397300462   -2.58688352404547
H        15.77869484280392   -1.32424312190823   -2.83634896331079
C        16.28915596932934    0.03747646390220   -1.24384009154920
H        16.86663081927705    0.70362390316648   -1.88630061908331
H        16.98353989331994   -0.66651432367586   -0.77908903569412
C        15.57797380506456    0.84551502629256   -0.16386897961946
H        16.31086309873892    1.37856512235352    0.46474739296804
H        14.92614307902669    1.58657794349476   -0.63406374498700
C        12.85763553871776   -0.05445397195205    3.01342322604247
H        12.04178107552624   -0.21428402425986    2.29716816100103
C        12.34720069779468    0.75456268150350    4.20837095938927
H        13.17807491155899    0.94224744105956    4.89544922358446
H        11.97792164387941    1.72879974298923    3.87460427983581
C        11.24446015854208   -0.00636259322469    4.93929532923920
H        10.38953518010951   -0.14238385587314    4.27255611852785
H        10.90655727190904    0.57099526335270    5.80101639299135
C        11.75169547464708   -1.37238582008058    5.39149388023279
H        12.56168445635919   -1.23998881806480    6.11199739538337
H        10.94983637197186   -1.91834084692878    5.88914517442890
C        12.25901328404778   -2.17488823293273    4.19720266395409
H        11.43395832553874   -2.35801598295425    3.50517693740074
H        12.63404486880255   -3.14305562232034    4.53156468481974
C        13.37199357386420   -1.41865242467259    3.47256751143627
H        13.71877229915571   -2.00585681130700    2.62035577591893
H        14.21589979264796   -1.29254979197059    4.15360486455473
N        13.20422298503596    2.21821767431544    1.47991156240898
N        14.87920424144038    3.71679926273415    2.16272302462642
N        12.51844888181770    2.17801759385115   -0.74076700744723
P        14.15760467731110    0.94682370601606    2.15628176437681
Rh       15.88606771912349    2.09710653935756    3.04679981579768

