33
CSD_code = YOPZAE | q = 0 | S = 0 | Stoichiometry = C14H15MnO3 | MND = 9
Mn       -0.70507498548510   -1.18281598709105   -9.80571166514045
O         0.10472612949647    0.93083628731086  -11.01933741238704
O         0.81439831119387   -3.66104971847975  -10.17585196624003
O         0.69193725369564   -0.69981047165748   -7.27628321092587
C         0.65398373138862   -0.07425985137164  -10.61965394689513
C         0.22610142915196   -2.67371792293145  -10.02959047079552
C         0.13608460378910   -0.90934027041001   -8.27231890917209
C        -2.68368846614569    0.42797164180594  -10.07631588323296
C        -2.77909752588101   -0.29706133479942   -8.87602067226441
C        -2.77687442234572   -1.70126029674571   -8.92045910525676
C        -2.62598635883573   -2.38438248083065  -10.12552094076856
C        -2.47471660652206   -1.65943558676217  -11.31580889081672
C        -2.52853948647618   -0.26970100592274  -11.28017582467099
C        -2.57858963328241    1.85882109666953   -7.61681370519692
C        -3.24586371288151    2.53931909224842   -8.80637853754251
C        -2.73009641108449    1.92930178479536  -10.10571830020454
C         2.14649950064874   -0.28731019157443  -10.80612402809337
H        -2.96137867696540   -2.25596541454306   -8.00638110315326
H        -2.70421077870467   -3.46559841577668  -10.15131125954775
H        -2.41740570345052   -2.17835718502085  -12.26611445306637
H        -2.47319382420887    0.29369464776161  -12.20446538769080
H        -2.84853704970861    2.35950701501061   -6.68569232393509
H        -1.49180839418776    1.90750602233128   -7.72669792610028
H        -3.03762713351835    3.61028745911190   -8.80165392935671
H        -4.33004885385635    2.41016753142685   -8.73598738202565
H        -1.70993105175869    2.28292166772123  -10.29551529553679
H        -3.34233530530315    2.25583607257223  -10.95168441404875
H         2.30094645742148   -1.11229825918052  -11.49945759574828
H         2.59836876948128   -0.56254553445879   -9.85511543691920
H         2.60863738190740    0.61593290856569  -11.20251977430912
C        -3.01864370425344    0.40016174126348   -7.56403146434236
H        -2.49396864609142   -0.12814266330437   -6.76387844240178
H        -4.09176683722788    0.34968762226695   -7.34151034221617

