60
CSD_code = YOPZOS | q = 1 | S = 0 | Stoichiometry = C29H25N3OPPd(1+) | MND = 4
Pd        2.92600541098070    0.55504970818014    2.63177600498437
P         4.65507350946514    1.86144604947372    3.16358547440547
O         3.45892910685065    0.41588367559288    0.45841223854674
N         1.61034055757038   -0.86609720424606    0.44959030483853
N         1.41167062612840   -0.66864608489373    1.78975915892066
N        -0.77577694044164   -1.10000803640274    5.76991224522434
C         2.66923332141870   -0.28109565585440   -0.16851329313043
C         0.40066532109977   -1.21729623791632    2.36973557242990
C         0.16390375132368   -1.01837636335413    3.74851434618739
C        -0.88428452955761   -1.52594000594011    4.49988642859654
C         0.33639654200006   -0.30265970668708    5.90342027999149
C         0.97207638059243   -0.22197348285327    4.64210405288567
C         2.14712704161357    0.52535641448903    4.47685779852467
C         2.62262555170960    1.17073834878498    5.60947115662124
C         1.98287140143992    1.08964312189509    6.84866581114238
C         0.83139332783510    0.35088889800410    7.02056801767445
C         2.79300191573792   -0.54919327147103   -1.63820082684167
C         5.65835640873654    2.21095771683435    1.69072235597283
C         5.80380058610789    3.47565530208725    1.13508772856147
C         6.57874155419985    3.63656537286760   -0.00155216221419
C         7.19830985221297    2.54400864501298   -0.58466449508645
C         7.04663787753904    1.27897375182254   -0.03497589106587
C         6.27787024017660    1.11104487655059    1.09919198490632
C         5.89463309111579    1.16395475317498    4.28947874841266
C         5.63979019119042   -0.09512303262251    4.82660095226337
C         6.57502403321540   -0.69538477128140    5.64977316884924
C         7.76588436700135   -0.04408993002639    5.93173400148025
C         8.03426944907902    1.19554042077174    5.37212426477895
C         7.10687380187186    1.79895137229489    4.54186702152063
C         4.05376209399365    3.48408042849523    3.71329270210956
C         2.79077830122387    3.81714685056604    3.22278256317333
C         2.22551921017317    5.03785685370648    3.53617070440704
C         2.91410052143169    5.92567699414810    4.35036593313395
C         4.16027967783812    5.58963486756689    4.85264417090468
C         4.73614172659480    4.37003835222845    4.53662766437913
H         0.94701321809953   -1.44564651620275   -0.06129281165622
H        -1.41248244028270   -1.32556559372167    6.51816448867101
H        -0.29430201013887   -1.83972994003007    1.80259630440242
H        -1.68948862278794   -2.16181898703996    4.18389489311796
H         3.52884590344610    1.76324476445783    5.56222355411423
H         2.40751085101998    1.61727003391179    7.68846304895456
H         0.33859667736498    0.28281166270360    7.97742028968546
H         3.66614283842501   -0.02849960905575   -2.02147621098567
H         2.90366697389952   -1.61616289643233   -1.82268726623743
H         1.90805091398954   -0.19854925884291   -2.16590150759613
H         5.31631864640293    4.32755938431865    1.58845998245534
H         6.69730724346955    4.61880765232007   -0.43360944263261
H         7.79933872351876    2.67627007115560   -1.47146712303326
H         7.52831024164709    0.42878690439502   -0.49453710404525
H         6.14251745596420    0.12890365427619    1.54100572985193
H         4.70020634882535   -0.59286013930269    4.58115236905094
H         6.38003968421559   -1.67065334012202    6.06915436841397
H         8.49397282572121   -0.50983081753941    6.57791356079712
H         8.97265564704203    1.68823309697971    5.57662823712758
H         7.32896708765447    2.74777336033824    4.07366712715113
H         2.25756307841000    3.09146689790210    2.59430580981067
H         1.25043385936409    5.30031050566360    3.15481144475221
H         2.47353252843005    6.87883449924642    4.59896830818893
H         4.68711460234504    6.27952633757104    5.49413193701455
H         5.70274244442810    4.10700928204407    4.93939382513709

