61
CSD_code = YOQBEN | q = 1 | S = 0 | Stoichiometry = C28H27ClIrN2S2(1+) | MND = 8
C         3.85302398990566    7.55623163767898    2.79065928480038
C         4.78164539984544    9.61818824245947    0.04972447366662
C         3.79222276238194    8.30971515786168    1.55983085886088
C         5.76942255540046   10.38597761887218   -0.68144587305959
C         5.00578847096604    6.85053392380037    4.56392632551890
C         7.12154753831928   10.04322096830539   -0.63590204646448
H         7.44175375367709    9.20770601325203   -0.03508212048541
Cl        7.52132239230806    7.49536476433183    1.72080780148044
C         8.03486763656753   10.74676507752765   -1.39999629717846
H         9.07592066784795   10.46352476286008   -1.37729939991476
C         2.77853994136413    8.36985026454428    0.65031444207169
H         1.81846650861742    7.89928619567648    0.69429309318341
C         6.07713965399693    6.59213096818187    5.50457229379300
C         5.35292284556806   11.43425513927612   -1.50786664826029
H         4.30603824873767   11.69818904825055   -1.55077939364448
C         2.90987571824656    6.73217838225007    3.32900744316128
H         1.92827056835447    6.51714554868963    2.96116340448849
C         5.76868388821115    6.30749760245278    6.83844687010170
H         4.73981996204167    6.33476858914685    7.16733435777845
C         7.90545510680898   10.04227640113044    4.10535408608304
C         7.61902305526899   11.79711289349301   -2.20261346053490
H         8.33665005395919   12.34178863689735   -2.79625619886450
C         7.83583275573543   10.79921534081013    2.87528998283234
C         5.81121765989883   11.02820454175759    3.98034860944205
C         6.55563397257630   11.43178426667515    2.82307716301338
C         6.66713376872625   10.21580903880387    4.79621938326696
C         6.27554610954950   12.14015810990332   -2.25324477249911
H         5.94758509337744   12.95282275690024   -2.88228788894525
C         6.36269247673187    9.80616129256391    6.19522391397833
H         7.01895190835531    9.01038639116268    6.53395567791828
H         5.33103256455800    9.47858273942927    6.30338218621763
H         6.50594294714808   10.66930235794490    6.84751426577852
C         8.40421581181637    6.22976855639591    5.98697761724926
H         9.42810913277100    6.17488628178577    5.65055644375457
C         7.40675939379207    6.54591255712214    5.08257201103560
H         7.64529490918007    6.71941123765757    4.04595601367634
C         6.11703755695269   12.47686846370157    1.85710564137419
H         5.06712815167390   12.36712151231406    1.59418827501034
H         6.70876081852277   12.45803047601650    0.94700617505836
H         6.24004504858285   13.45477512477677    2.32571982848394
C         9.01568449118142   11.06392954114491    2.00418157089433
H         9.51289214810648   10.13423767479634    1.73644275471299
H         9.73106383406965   11.67972540407194    2.55088609279046
H         8.73328044774688   11.58503958506336    1.09477663925043
C         6.77403730963590    6.00913491519559    7.73588007540716
H         6.52884759985300    5.79861528221609    8.76507495756013
C         8.09465829397159    5.96858632760680    7.31229795763253
H         8.87768024683628    5.72330537048733    8.01286845361739
C         4.48922317693594   11.58219805406159    4.39532367981377
H         3.86732136019926   11.80755034482053    3.53207099376926
H         4.63773579463849   12.50851599859183    4.95226180423103
H         3.95444915639598   10.88750043112459    5.03878224809381
C         9.16362546884382    9.44143059000750    4.63171586735714
H         8.98454282685002    8.86312303336976    5.53269732614679
H         9.87003468983809   10.23946087206538    4.86389787200932
H         9.62345345855350    8.79657386900072    3.88593805004399
Ir        6.31163753592865    9.19087797866585    2.82130262263923
S         3.22994008428984    9.33949932333269   -0.68238836813055
S         3.49849203207948    6.00705341126652    4.75996871664046
N         4.90776148911501    9.03191989138124    1.21585394795007
N         5.02181775658074    7.62661321908225    3.50701291434338

