49
CSD_code = YOQBOW | q = 0 | S = 0 | Stoichiometry = C20H22Cl2N2O2Zn | MND = 4
Zn       -1.48678376918972    4.65321320764867    3.47437181221278
Cl       -1.25957866855260    3.61730165227565    5.40525687749423
N         0.11024502694434    5.99371594157043    3.09228465692495
C         0.89426829157485    5.76564612899336    1.89117492383245
C         1.49452731992303    7.15016052722491    1.58684770154304
O         1.05565642426682    7.96351399665813    2.67536092462494
C         0.27612420712441    7.20988618331599    3.45889089595869
C        -0.30345685596349    7.83724465336477    4.63499407795223
C        -0.70681201849906    7.07921648871969    5.73249460900840
C        -1.28891753504753    7.70166851444882    6.82015304448841
C        -1.48022000703502    9.07876105153202    6.84488853102266
C        -1.04492846132608    9.83095536466467    5.75628283187066
C        -0.45575153179320    9.22480329348942    4.66723297162029
C        -2.11981787686766    9.75274866652633    8.01791255940680
H         0.24685134610327    5.38679366676478    1.09935214689951
H         1.65326757882881    5.00863175021114    2.10431756499562
H         1.11369055381310    7.58721944878502    0.65995998340038
H         2.58667882216716    7.15546047827331    1.57273656171903
H        -0.55251037569855    6.01194652835402    5.74107251452688
H        -1.59479812123221    7.10342124358078    7.66633262275865
H        -1.17226061743094   10.90390162239933    5.76929300145353
H        -0.12051491936123    9.81080892730225    3.82551888947276
H        -2.53958065582436    9.02514606875467    8.70791913501338
H        -1.38006013018680   10.34684831529322    8.55421219556979
H        -2.90921469322496   10.42719411716208    7.68955442550719
Cl       -1.71393120759862    3.61721906338527    1.54349808397965
N        -3.08385887972940    5.99370688320866    3.85646656786844
C        -3.86791459725654    5.76565707034343    5.05756052086326
C        -4.46820378074783    7.15017195984283    5.36183370370644
O        -4.02936008993107    7.96348633581695    4.27328297651507
C        -3.24978184065632    7.20985560311467    3.48980128056462
C        -2.67020614481529    7.83720940659659    2.31369262666610
C        -2.26677224636708    7.07919203143915    1.21621453685052
C        -1.68461588315891    7.70165522534814    0.12859141894991
C        -1.49336917860394    9.07875448543448    0.10385229639090
C        -1.92879383901186    9.83094615305321    1.19240702856129
C        -2.51799361293019    9.22477719371721    2.28143474776809
C        -0.85369871977632    9.75275305901330   -1.06912226718461
H        -3.22052434420403    5.38682783990724    5.84941586545543
H        -4.62690110198367    5.00863163181021    4.84440719679507
H        -4.08737030567719    7.58728241338961    6.28869975685395
H        -5.56035486938966    7.15544514715751    5.37595257828435
H        -2.42103598376355    6.01191756222013    1.20762654001867
H        -1.37868472055445    7.10340960378486   -0.71757216764731
H        -1.80152257809329   10.90389932664416    1.17938422232364
H        -2.85328992649241    9.81077154505680    3.12313270612621
H        -0.43385995554669    9.02516825028556   -1.75909693767315
H        -1.59341352051927   10.34684392614721   -1.60548529112019
H        -0.06434600670430   10.42721044596563   -0.74069345020402

