33
CSD_code = YOQDAK | q = 0 | S = 0 | Stoichiometry = C12H15Br2NO2Zn | MND = 4
Zn       -3.02468072325795    2.43273904240580    1.35601618939793
Br       -4.68747106929747    1.63628618328062    2.81588702662108
Br       -2.39472960242477    2.51690320986658   -0.88887025814333
O        -0.86036831411665    4.23235338219178    4.40588012243842
O        -1.41173453956119    0.91043399351863    2.05462225020669
N        -1.80009096043425    3.63493713874542    2.48591178384518
C        -1.55122217979973    5.06449265173225    2.31145779526429
C        -0.96950648634327    5.45957819576522    3.69281571179072
H         0.02374391143862    5.90773415030699    3.62078569267946
H        -1.62975098764935    6.12812040766582    4.25303501749716
C        -1.37471211105575    3.27060816673688    3.63916093578274
C        -1.39443815439620    1.92870818102573    4.20149877970035
C        -1.38094848780606    1.81141612952226    5.59235812979379
H        -1.37571014737934    2.71450520869916    6.18175805495684
C        -1.39017983928601    0.57497006057943    6.20165420440637
H        -1.39355483922251    0.50110915713022    7.27721429633293
C        -1.40176853411528   -0.56755169106080    5.41947492552699
H        -1.41674124840352   -1.54254460363546    5.88148504807268
C        -1.40010050767639   -0.47629055783073    4.03967252387677
H        -1.42228567996866   -1.38124337600179    3.45526649696488
C        -1.40575160148132    0.76390064088577    3.41129296704000
C        -2.85819466802394    5.79023048949980    2.00320864350400
H        -3.25137495489755    5.46322540738827    1.04134523910958
H        -2.68204991748161    6.86179211811829    1.95273812790078
H        -3.60178770610437    5.59029263155874    2.77358853044354
C        -0.53646887626292    5.26856986353879    1.18631693129919
H         0.38768888775153    4.73806930469158    1.40748299236860
H        -0.32093812636579    6.32802986842500    1.07449195208537
H        -0.92925116473410    4.89183997583287    0.24562021747416
C        -1.08750321201411   -0.21849511062562    1.25366113570243
H        -0.15419613442029   -0.67343928636974    1.59228334520595
H        -0.95960048617082    0.15997463374343    0.23998835974980
H        -1.89282153904133   -0.95835556734289    1.26229683111064

