36
CSD_code = YOQDOY | q = 1 | S = 0 | Stoichiometry = C18H14MnO3(1+) | MND = 9
Mn        6.26371962987385    5.92379248607217    2.60386827608852
C         4.18072060333862    6.96322778078338    3.47581387286099
O         9.02839912849258    6.91176515688400    2.41974660668347
O         7.00942739086133    3.34248091791093    1.40083193672398
C         3.88256467880051    5.90833764068714    2.58025796509497
H         3.17402735772557    5.14869643357436    2.89415829022471
C         4.34872422885952    5.89437775457405    1.25842138776889
H         4.00168418444888    5.13099147728670    0.57165683715817
O         6.67333006555193    4.89686216222517    5.33241415197164
C         5.17868841020465    6.93138861456452    0.80651367916008
H         5.46742360309854    6.99042314428039   -0.23647419381365
C         5.53571863690780    7.95431014428713    1.69816157282289
H         6.11830524514370    8.79511414425785    1.33440819456292
C         5.06224475087170    7.98399653764241    3.02845006727531
C         5.54360322737710    9.07122171096685    3.94143907510425
H         4.70619641035530    9.68479418187090    4.28084406103534
H         6.24764179888675    9.72019432168450    3.41842893375269
C         6.22373062383968    8.40727680677174    5.11762093516412
C         7.60888897737053    8.35976349804723    5.20460732988714
H         8.21409124922865    8.85310197065899    4.45777981933418
C         8.21509476135056    7.72239182369888    6.27437221189809
H         9.29078529693339    7.70062870384808    6.34545950860153
C         7.43810566584390    7.13049650812547    7.25538157832950
H         7.90688613003228    6.64321744988261    8.09526470648873
C         6.05684113171893    7.16586056077746    7.16348523654198
H         5.45434078709541    6.70372073560426    7.93069817075179
C         5.43737571664766    7.79429473774548    6.09307348881362
C         3.94446287342554    7.82681014632788    5.94693153220373
H         3.47712641955198    7.46278309825673    6.86239382177900
H         3.60600308953630    8.85562321651589    5.80507989603193
C         3.44720829510407    6.94209868893882    4.79182424229242
H         3.42622046305545    5.90452616747715    5.13935744416453
H         2.40760399737449    7.21551205526988    4.57286582706275
C         7.96771436329007    6.51153345336195    2.50819607014212
C         6.74638281109825    4.33462912416999    1.88622086104743
C         6.54101799670412    5.29875664496717    4.27654660498856

