60
CSD_code = YOQJOE | q = 0 | S = 0 | Stoichiometry = C35H21ClO2Ru | MND = 8
Ru        5.00854692340429   10.04106614186634   30.67157099708860
Cl        7.15708245504493    9.98478057155970   29.67478032408466
O         5.60564039143990    7.62116191532939   32.33124105598449
O         5.96629435745528   11.87658769041472   32.83292088942015
C         4.17086042057796   11.21561818861379   28.94415812063083
C         4.16947933468488    9.79795302256606   28.59060063961766
C         3.31339669235305    9.10794878170330   29.47657402298660
C         2.79955032079711   10.09307319964226   30.41567280060612
C         3.28050921095521   11.40707211658803   30.02645277129164
C         4.88721110557190   11.94062779189135   27.89863670098062
C         5.26753371036592   13.24148666482616   27.68389226632883
H         5.04090279921379   14.02451988289794   28.39292506108136
C         5.99039521002824   13.54390115422085   26.51503455504064
H         6.28386857836727   14.57109445737094   26.35202843434755
C         6.34092412164696   12.59217922754824   25.58984168796236
H         6.90047949787116   12.86991300128367   24.70844032363784
C         5.98533258897434   11.23901791896160   25.78837297073330
C         6.28005603214055   10.13874746758054   24.95218070208210
H         6.83594225782284   10.30047556389451   24.03996833252171
C         5.87042335302410    8.87445504979203   25.29729026661836
H         6.10862396094507    8.04686445974789   24.64451735658289
C         5.16174513185969    8.59949831324711   26.48104125228948
H         4.87781856298816    7.58395680819435   26.71479208203443
C         4.85458389364780    9.64529220948044   27.31456140156714
C         5.26145126284816   10.95502662169959   26.94832800495373
C         2.90841874084652    7.69980112884974   29.37516679675101
C         1.56303749249129    7.34115751238658   29.40101326556362
H         0.80599011715331    8.10407604086499   29.50854598115800
C         1.19811864140936    6.01291082361122   29.27953686762567
H         0.15263598971390    5.74334296932197   29.30207824065471
C         2.16469335373309    5.03289933544456   29.12919636309941
H         1.87507554716523    3.99682525194046   29.03781896427543
C         3.50504672619483    5.38374244621111   29.09963438999908
H         4.26236792315558    4.62215157775752   28.98762183180010
C         3.87680762216380    6.70846132716218   29.22171297696507
H         4.92456981376176    6.98617942962151   29.22247844066861
C         1.70166727055202    9.83392435916746   31.36119003052149
C         1.80318453491801    8.81622061158704   32.30689744511934
H         2.71976298665011    8.24335192965054   32.37050171088904
C         0.75376206311837    8.55379816447882   33.16613597852809
H         0.84480153304496    7.76402341274026   33.89641157582280
C        -0.40814773847420    9.30511942121084   33.09524667771917
H        -1.22591678297169    9.10238051755528   33.77031615299936
C        -0.51707403662897   10.31787339492678   32.15755085814967
H        -1.42116534280624   10.90522380172479   32.09667625369566
C         0.52800423534816   10.58172639804551   31.29151249878765
H         0.43405583327748   11.36368391032740   30.55179720691831
C         2.82071905379017   12.67601688716877   30.60306411116262
C         2.67408302843300   12.83208572845911   31.98059181846216
H         2.94128276519399   12.01684860693772   32.64070224814240
C         2.20980191073767   14.02505477065239   32.49933442835146
H         2.10690282618453   14.13864114761360   33.56790033897027
C         1.88288486328002   15.07369311670605   31.65432427648089
H         1.52318897403090   16.00605250580865   32.06281603682431
C         2.02006203188182   14.92360436014819   30.28481470422200
H         1.76278878335118   15.73660858897577   29.62195073800769
C         2.48543877375713   13.73262105747353   29.75868694049754
H         2.57649124418240   13.60851619041630   28.68914269110426
C         5.38718233069875    8.56212777144121   31.71854334289002
C         5.61202471663502   11.14943728269085   32.02496479670069

