33
CSD_code = YOQJAR | q = 0 | S = 0 | Stoichiometry = C13H12CrN2O5 | MND = 6
Cr        0.56978913258893   13.11274995779664    6.69869604796989
C        -0.83979147348128   12.64594084915582    5.56112769236397
O        -1.76825271145322   12.26802848812434    4.99919555948939
C         1.30691706388745   14.48715099700749    5.31009661045877
N         2.52300484412414   14.85258261975317    4.98047037609121
C         3.70277813178918   14.31078934728270    5.61767655273769
C         2.85576756010669   15.87048560621097    3.99771103203130
C         0.25081506837042   15.11059803666638    4.49343105798974
N        -0.02477135489414   14.69281661451643    3.21913975622604
C        -1.08534974747508   15.40039494825488    2.74166875524269
C        -1.47920059335617   16.29728021134550    3.69506982624066
C        -0.64069540332972   16.11301346271556    4.81034762019880
C         0.63019243685798   13.61451575428268    2.53364516095060
C        -0.56408476829324   14.37636387490665    7.48322086523345
O        -1.32356280793758   15.01399234684916    8.06033470388298
C        -0.13954341859670   11.88747847266673    7.89288606901800
O        -0.56516550492448   11.11643526055696    8.63572106801858
C         1.57361722224291   11.69139970307641    6.03162262237754
O         2.10316218789375   10.72030197795378    5.70410589368739
C         1.82592323011831   13.45800363288826    8.03703948916072
O         2.48465244045235   13.54649006261954    8.97772083267887
H         4.47304224276905   14.13427658033217    4.86523904919023
H         4.09387335004370   15.01469059854345    6.35655961555141
H         3.46719224951891   13.37169651917393    6.11502746796092
H         3.57117599347342   16.57081049074569    4.43129164123173
H         1.96325879409087   16.41656994106575    3.70038188779688
H         3.31188153556899   15.41583211515504    3.11550962497710
H        -1.48284078214080   15.20620449139736    1.76523711944239
H        -2.28016673679992   17.00450294881608    3.61437244876772
H        -0.67451492982928   16.65653663639297    5.73433084745215
H        -0.07318826040266   13.13426298038556    1.85383306524064
H         1.48294310272279   13.97441815343882    1.94860334426398
H         0.98274190629862   12.87408631983742    3.25548629609625

