126
CSD_code = YOQSAB | q = 1 | S = 0 | Stoichiometry = C57H64CuN4(1+) | MND = 3
Cu        2.49246505515847    9.95327637614131    6.68291548480283
N         2.19586029339962   10.99713872865093    4.92242294961407
N         3.11384933365293   11.81610223354149    7.32090437577657
N         1.48049760035865    7.17439488126238    7.12693277722812
N         3.37256269536553    7.45495327143643    8.08504372706760
C         2.58789628617169   12.20910207681896    5.03989972142333
C         2.60622582229267   13.35771337302910    4.14821904021679
C         2.21698107668280   13.59162085329566    2.85003405713689
H         1.78383770942031   12.81542964366977    2.23773994247027
C         2.39120530389702   14.88468409477190    2.32497821105806
H         2.08559100341759   15.06451064514695    1.30529644499577
C         2.92934538982717   15.91831171473143    3.05460749331132
H         3.04392748977039   16.89495173926283    2.60911859566500
C         3.33216871584387   15.71577880948096    4.39433476484125
C         3.88529613086535   16.66336622945901    5.28556476322280
H         4.04837200059649   17.67567211952060    4.94788632274206
C         4.20909347076533   16.30322562509437    6.57229322822959
H         4.62695930125178   17.04487271154397    7.23622837095684
C         4.01683691005941   15.00208323552418    7.07053554467888
H         4.28039002555526   14.77195459131849    8.09160562337853
C         3.48930924225024   14.05260088209811    6.22689670092597
C         3.12269490374091   12.65062796957587    6.35125900317523
C         3.58439904505051   12.16880177720513    8.59568196836540
C         4.95406472258320   12.15108931806207    8.86634522391836
C         5.92981772421624   11.83532882105142    7.77458747065305
H         5.60147065878528   10.96139697759989    7.21325519443067
H         6.91434838412231   11.63738065549000    8.18751524718930
H         6.01119415501753   12.67432644489835    7.08119179092851
C         5.37980883078011   12.44939588901087   10.15074283684848
H         6.43764189012185   12.42176679086587   10.36661064899492
C         4.48482085419382   12.79364436370775   11.15361744548690
C         3.12909470593714   12.82975288039008   10.84937305584570
H         2.42082063368505   13.10697948871881   11.61657222183404
C         2.66019779511622   12.51173032770557    9.58605541788342
C         1.20088498922809   12.56351017451893    9.25212541757142
H         0.60049379972621   12.60760835046880   10.15631909923080
H         0.91222779134174   11.68683087161917    8.67204474021779
H         0.97944612067903   13.44651617347230    8.65059756484638
C         4.95652360988476   13.13156770857850   12.53382728556728
H         4.41568491178318   12.54804414592175   13.27721386034140
H         4.77443847228118   14.18451219421181   12.74684586445696
H         6.02044603187459   12.93836510058811   12.64144138976393
C         3.15553790579248   14.42497740795636    4.90110346771955
C         1.63390775394085   10.52087493118152    3.72665896663454
C         2.45210537411353   10.12197663993797    2.66788277335285
C         3.94296968773722   10.24022606581801    2.77812104929374
H         4.25827204760242   11.27200981310293    2.61441035919411
H         4.43041402323679    9.61613131269606    2.03408432580462
H         4.28139155827707    9.94133988547005    3.76962562129173
C         1.85370035698661    9.62176100012555    1.52190885670430
H         2.48278809992605    9.30863556603948    0.70152209555871
C         0.47495917572736    9.50970567486273    1.40783123043370
C        -0.31483966432920    9.92531830169400    2.47194559580524
H        -1.38984714719011    9.85840901492513    2.39502225447158
C         0.24270705094529   10.43558906262849    3.63076841148640
C        -0.60014446029033   10.95047718818340    4.75513776940885
H        -0.24036318020312   10.55263521343549    5.70433082964601
H        -1.63936017835196   10.66639930842550    4.62059619027690
H        -0.54192954808920   12.03941702319319    4.80328062177869
C        -0.15251978812526    8.97617284099451    0.15743127337263
H         0.54826617089069    8.35739304609703   -0.39750411734629
H        -0.45842364709678    9.80021795395674   -0.48767090254771
H        -1.03911731264552    8.38997040674757    0.38902502166432
C         2.44659412434980    8.09218407341731    7.33900075237307
C         0.31102829054691    7.35842460991432    6.33752595771229
C         0.28049596510309    6.80290482223552    5.05698745800895
C        -0.86497481630292    6.99362351124637    4.29503209462375
H        -0.90995309870201    6.59945769562751    3.29278397386983
C        -1.95385888640962    7.66492865935933    4.81352270568700
H        -2.84533771114664    7.78440979153192    4.21653440896624
C        -1.91858532818794    8.17088863350808    6.10018115141739
H        -2.78729068868747    8.67129491282871    6.49524323254113
C        -0.77941905534631    8.04395774909107    6.88193278740004
C        -0.72622411804620    8.56070548105033    8.30258143303642
H         0.30799387902651    8.84787971258624    8.52571376964115
C        -1.60690215818934    9.78698164885040    8.53887169190912
H        -1.42774157669383   10.55114804115514    7.78587881788726
H        -1.38485756754082   10.20954169184337    9.51615030467328
H        -2.66097883627206    9.52375834100875    8.52461077286553
C        -1.13477934327659    7.43747897095351    9.26275484274286
H        -1.10848977257184    7.79543136342444   10.28902659506790
H        -0.46457266002902    6.58525926640281    9.17944773568744
H        -2.14505441991964    7.10243287140034    9.03971234367999
C         1.43963404557900    6.00504172303163    4.50481350751980
H         2.16753382948718    5.81967837929151    5.30018920755487
C         0.97378245363961    4.64296479392718    3.98527767668109
H         0.35066390672869    4.74958241543450    3.10227603659722
H         0.40316150253821    4.11517975766743    4.74637092422204
H         1.83544521998875    4.03577939882183    3.71850518528628
C         2.15143190369673    6.79341203043202    3.40584444915964
H         2.98747068393985    6.21799435619331    3.01550199547345
H         2.52720734923291    7.73391038167595    3.80156304131537
H         1.47212908692982    7.01707919411321    2.58816865807713
C         1.79722869650434    5.98566374089302    7.72661924768299
H         1.15887079661612    5.12872091353494    7.66626120209796
C         2.99393639603682    6.16298139485046    8.33233594414615
H         3.59861260671482    5.48979336360944    8.90438229270319
C         4.58995254434067    8.00907101028157    8.57172698739777
C         4.67547015163612    8.34860103223887    9.92492822372834
C         3.48752532765381    8.15796666731726   10.84132359250846
H         2.91242047630221    7.29341911993408   10.49339765750143
C         3.88474438461914    7.88311609275659   12.29079455833415
H         4.62693496057550    7.09022792061329   12.34545854596736
H         3.00866525246748    7.57184461277340   12.85483001223692
H         4.28613143408299    8.77384756369983   12.76637899752032
C         2.58323531470866    9.38985853224817   10.76369830329179
H         3.09945748702879   10.25614351386707   11.16743229835189
H         1.67366306883097    9.22632687063470   11.33663736252709
H         2.31597136927247    9.60726172520591    9.73074679127961
C         5.87468990960962    8.87357048919015   10.38560018265141
H         5.97069239998484    9.16874902526877   11.41682776493103
C         6.95903218250127    9.00244173016164    9.53941236692693
H         7.89231875152626    9.38895911937992    9.92024708716176
C         6.86484541843264    8.62533377198743    8.21300588071743
H         7.72910798568149    8.71564724361646    7.57583860080582
C         5.67234387583707    8.13682588617983    7.69693625568633
C         5.55512740532461    7.68669810480713    6.25704975723450
H         4.52095916404572    7.84622741712707    5.92746432326636
C         5.86883872501945    6.18849452899190    6.17020776732685
H         6.87979576858902    5.99652608231539    6.52206204393589
H         5.79114743872012    5.84929171921281    5.14013664881088
H         5.17908197624195    5.60597585277864    6.77642515902856
C         6.46559506338589    8.46016047421896    5.30409396796525
H         6.34740804465917    9.53415620437148    5.43371153717157
H         6.21413499175772    8.20732389073992    4.27650985946676
H         7.50984326215332    8.20380219030945    5.46002268657860

