115
CSD_code = YOQSED | q = 0 | S = 0 | Stoichiometry = C55H49IrN4O2S4 | MND = 6
Ir        4.53747771039285    8.38870042628235    8.95523322655484
S         3.72517331893968    4.26022053107182    7.51555715517173
S         4.01333325660031    8.23851462412805    2.29507486979710
S         8.70057338897194    9.08928567907106   10.37616778663938
S         5.82457292869851   10.09291551600795   15.48005748301680
N         3.29542938435473    7.27329990363626   10.10721426055075
N         1.14511403203686    8.13076221416407    2.81708850024087
N         5.70936454675355    9.53498599815183    7.76673810247977
N         5.89647715307710   12.79359076678839   14.33138805584135
O         2.72780215356136    8.84869092679241    7.80983349323430
O         4.09057470887374   10.21967640966834   10.06008801386996
C         6.67255006855242    7.47306930944123    5.19792194071412
C         8.07756530140152    7.95295860601893    4.92492170973971
H         8.50151280140250    7.41524024595111    4.07438679751519
H         8.09970305601242    9.01893125103677    4.69539787120302
C         8.85147560506292    7.63277407041173    6.21377293715352
H         8.97230172256815    8.53694170636943    6.80935576935668
H         9.84365490645956    7.23739723615142    6.00125387471431
C         7.98143099247684    6.62482751131017    6.97372700341378
H         8.34826835714577    5.60053561536953    6.85637789442099
H         7.92747410704313    6.83347125350127    8.04220949401138
C         6.62958838385816    6.75231101368136    6.32648869521435
C         5.48665017642180    6.06967112978948    6.94415178794708
C         5.06210903083373    4.82377356474032    6.56286351467665
C         3.75094326312819    5.74241963726683    8.43110445043647
C         4.73787703167577    6.61907876002331    8.02103863832706
C         2.93969543413482    6.08557927475090    9.55049365704305
C         1.90063274051754    5.31627351466142   10.08105388552295
H         1.64142869014266    4.38578623387827    9.59989581113762
C         1.23521316190508    5.76541840123905   11.20122097385833
H         0.42588327022978    5.19116695993419   11.62681965942548
C         1.63232883430095    6.96644163032808   11.78173913133235
H         1.14912760370545    7.34304455307979   12.66868057066672
C         2.66113416801065    7.68192759881975   11.19982490318031
H         2.99100864562748    8.61684794311264   11.62991674315771
C         5.54385869239839    7.74354397283996    4.32130904306236
C         4.20275208270458    7.61849172755268    4.77221525791325
H         3.95028533361946    7.41120526867646    5.79323106122392
C         3.26495510915713    7.83230627773840    3.80661374783995
C         5.59463554293430    8.08652585611740    2.98689858690246
C         1.82843953579604    7.71637993052557    3.88506869555828
C         1.19330759469151    7.16636184829455    5.00644947307989
H         1.76979377672713    6.84357270436845    5.85822732737023
C        -0.18287359819197    7.05217910273829    4.99248088116852
H        -0.70242756772289    6.62766911732472    5.84014996146361
C        -0.88798045108390    7.48665821816968    3.87818923460712
H        -1.96315627635843    7.41131886906908    3.83174170354416
C        -0.16761573069322    8.01987453868372    2.81997609989574
H        -0.66456588737898    8.37571144765923    1.92628491531311
C         5.59940632280547    3.98025240521458    5.46291301087957
H         4.81997366068797    3.76587688051926    4.73178702287283
H         5.96697585747030    3.02901371493043    5.84795636678264
H         6.41237805696636    4.50284917501416    4.96455594747731
C         6.76252566462137    8.29590477804074    2.08465437798580
H         7.39033591374829    9.11500406168887    2.43180736212426
H         6.40999499862308    8.53295232880251    1.08371118891796
H         7.37585600862448    7.39718020502734    2.02730377395434
C         5.40806883015097    6.88555645814527   13.11465327739229
C         4.72108068802070    5.66795860787023   13.67724043174263
H         3.72161960592596    5.90130383595970   14.04742533459008
H         5.29845079933134    5.25638349174908   14.50810258450458
C         4.68539786421180    4.68430357725547   12.49507147187195
H         4.88701243644920    3.66214633359655   12.81224182005121
H         3.70062201024421    4.70079963177504   12.02906942313469
C         5.73682564843073    5.19671936275660   11.50041256637315
H         6.67603798714479    4.64090087978264   11.58308718417378
H         5.40851566220696    5.13191896130830   10.46335214796891
C         5.95710384979142    6.62177103858889   11.92250605958312
C         6.75640287744124    7.54904546341972   11.11585979019905
C         8.02293188629523    7.93400441917653   11.47585068795691
C         7.23300732659932    9.06056038478896    9.43948112943588
C         6.28353528757424    8.18705988772166    9.93756519001914
C         6.94259548625519    9.80807438888278    8.26349942901524
C         7.79113072210671   10.72621708212652    7.63815956199704
H         8.75439801377755   10.93239265168188    8.07950469403123
C         7.37603591280836   11.34341454174925    6.47854540799387
H         8.01571000483357   12.05260848472942    5.97442860155947
C         6.11867566226502   11.03646419044843    5.96680562357354
H         5.76027143693271   11.48933581145453    5.05661839729280
C         5.32190483220756   10.13751627861543    6.64848137011047
H         4.33742731651659    9.88747051954878    6.28011666471299
C         5.48726367881673    8.17927254289186   13.77822265671129
C         5.62356003880871    8.40790184206068   15.12774600184201
C         5.73021907232533   10.49997423373975   13.79433284068829
C         5.52965384331834    9.38623932461290   13.03353215472476
H         5.38085940866736    9.41999565860443   11.97121077804206
C         5.91144513260024   11.86835985919299   13.37121543330582
C         6.12718176971290   12.19483511377139   12.02544339551468
H         6.13752630057884   11.42565144417911   11.27029940381913
C         6.31942813323311   13.52102461919196   11.69426619832520
H         6.48998277943588   13.80569299978306   10.66508837287195
C         6.29647334230602   14.48065252419726   12.69763654055829
H         6.44482117284081   15.52608010925767   12.47592279604503
C         6.08167605610462   14.05525879543731   13.99968896516069
H         6.05651968482105   14.75879723116203   14.82233681334618
C         8.79562350275550    7.50568066395810   12.67157629164033
H         8.36339591127375    6.59889608051389   13.08803112308785
H         8.76483627314914    8.28217185000737   13.43765270195724
H         9.83836334634881    7.32693554395439   12.41533592925006
C         5.66427040927850    7.43044465500823   16.25120040440319
H         4.71595253887135    6.90204332258987   16.34497248998561
H         5.86276269905260    7.95015946227166   17.18512449551983
H         6.45069667170459    6.69303518816145   16.09134176624621
C         1.96441689524165    9.83043286590243    7.98478532972895
C         2.06002118985316   10.81126790093675    8.97577706338231
H         1.27654847380784   11.55372127200737    8.99894100964933
C         3.06568013145638   10.93603080240329    9.93680380722198
C         0.79084362996675    9.95288162771052    7.03061206017660
H         1.05278538395403    9.52702324996048    6.06471070602646
H         0.48889471956068   10.98908632411774    6.90796597562131
H        -0.05215099905842    9.38910682307867    7.42990970553252
C         2.91281689566399   12.07798651437641   10.92454489857094
H         3.46501093964696   11.85987203811866   11.83570145412407
H         1.86618353635657   12.25180375642716   11.15913397078585
H         3.32507071467478   12.98719503287695   10.48797391499188

