45
CSD_code = YOQTAA | q = 0 | S = 0 | Stoichiometry = C20H19ClN3ORh | MND = 4
Rh       -0.99888821420290    3.41095503104841    7.34896881822012
Cl       -1.89792438865092    3.56435735878591    5.31840290959149
N         0.56705372812621    2.37429427493580    6.64927726218458
N         1.40141233847470    2.87477069776805    8.67053746513781
N         0.21320373559737    3.77224429926230   10.23731363279690
C         0.15085073919974    3.38107175714611    8.94505378705550
C         2.20282580450875    2.93263210891499    9.78923413293718
C         1.45366367640157    3.50357817175260   10.75813351048803
C        -0.86344297769824    4.37837807712447   10.96992778121759
C         1.60139140091448    2.32159626146518    7.42375924527749
C         2.90862178187028    1.73360341563742    7.09379629481366
C         4.07166999926273    2.47947415451172    7.28836440151204
C         5.30268219647360    1.95175562180991    6.94698632888210
C         5.38877433973080    0.67721280473299    6.41110244971117
C         4.23768695137321   -0.06742385957793    6.21443922417820
C         3.00238740640693    0.45484153806948    6.54969781977238
C         0.58059551019157    1.78370408966169    5.36920241104000
C        -0.20893976501904    0.64437539758879    5.17327552060679
C        -0.21555403940062    0.04878123148164    3.92318958969916
C         0.53107279571921    0.57844189666393    2.88566846525946
C         1.26794450844718    1.73146534285339    3.08124870215768
C         1.30117543453287    2.35552949376023    4.31939158005608
C         2.03134551238828    3.64926182367651    4.51731140019139
C        -1.03272479606372    0.11413327119449    6.30702093256877
C        -2.39875615991597    4.34063434321647    8.06650748656411
O        -3.28618146108246    4.91771412393769    8.51569897347174
H         3.20656909731686    2.56313846790398    9.81114652006257
H         1.70618007825203    3.73175402643216   11.77375162319231
H        -0.65756140917480    4.31795098852854   12.03724740531292
H        -0.98024121277242    5.42656551273984   10.68611753567546
H        -1.79497998908677    3.85736998162672   10.74947808104390
H         4.00551976978476    3.48581336482990    7.67757548769756
H         6.19630809542567    2.53989713594399    7.09416687264068
H         6.35117007361649    0.26776313060932    6.14408444591177
H         4.30024743881045   -1.06025802061946    5.79571229130336
H         2.11051807537046   -0.13253573255637    6.39906284088919
H        -0.82140285503866   -0.83060665492711    3.75989643977442
H         0.51676426096021    0.10564677906112    1.91502435967441
H         1.81736065132379    2.16666458665219    2.25921471720035
H         2.21783307259626    4.12643590089525    3.55873427149794
H         2.99045166655958    3.49174258414792    5.01359353730098
H         1.43060536632628    4.32361657002228    5.13149831462054
H        -1.74553962324089   -0.62551252701760    5.95268806534549
H        -0.40573200331470   -0.34418608228665    7.07491238655208
H        -1.58651661129896    0.94595726059364    6.77738467890887

