96
CSD_code = YOQWUZ | q = 1 | S = 0 | Stoichiometry = C39H51CuN5(1+) | MND = 3
Cu        9.12091874478214   11.70907769871114    8.95887363737262
N        11.15597202720222   10.04743889012399   10.34817667609656
N        11.15050386752005    9.67267758968904    8.22774965134045
N         7.85138962856559   12.68531389334611   10.23383405809871
N         5.98922398900841   12.31766430267863    8.85622847461766
H         4.97943596756761   12.28691885971388    8.84285061282720
N         7.88607338650972   12.30581985599940    7.44776962649131
C        10.61402614051278   10.41389895148321    9.19139806070137
C        12.15129617736866    8.98195190422942   10.21716539741394
H        11.86089651510776    8.11977439074819   10.82298913616668
H        13.12567923166891    9.33260129185043   10.56895803487916
C        12.12485347368814    8.69443952838124    8.71461214264391
H        13.09249790877787    8.84813316417502    8.23015840105800
H        11.78425825819900    7.68175094452915    8.48060651939902
C        10.85637866255619    9.77303886610886    6.84256958951823
C         9.80662291557166    9.02224691035150    6.30976438171590
C         8.95345758176885    8.12991909543190    7.18006167287757
H         9.34609931161578    8.14578842433903    8.20103757756493
C         7.51922069431591    8.66024355331315    7.23881486778973
H         7.07922359000543    8.70673726341233    6.24593183161639
H         7.51061031056812    9.65975304596906    7.66960469108145
H         6.90611295126791    8.00973830980059    7.85812352555799
C         8.98273685574965    6.68408185644108    6.67964575650153
H         8.45595093535518    6.03694541854350    7.37693754230783
H        10.00743198061890    6.33061131050932    6.58649567554694
H         8.50371297887543    6.59621633267325    5.70873758546831
C         9.56057488262050    9.11535593251847    4.94636601672904
H         8.75751733451565    8.54440682210368    4.50759651827393
C        10.34139969415119    9.92055451701744    4.14020312689340
H        10.15058475903062    9.96562561581362    3.07877752731141
C        11.36816849163659   10.66767738034900    4.68634959529740
H        11.96393224914149   11.29951396640149    4.04627554000106
C        11.64412713862928   10.60881458674787    6.04589750955887
C        12.74595342744950   11.45414867720049    6.64228177220985
H        12.90840107282440   11.14951556986432    7.67995708879250
C        14.06503652910034   11.27814462547811    5.88743258557978
H        14.31754910945873   10.22361992087699    5.79510660283024
H        14.86801952070273   11.78003014732496    6.42210719860513
H        14.00927211121072   11.70468317246010    4.88974458343018
C        12.32063998190933   12.92557035300188    6.66415794806244
H        12.10180595406027   13.28103919922441    5.65980788806575
H        13.11934377794195   13.53745811563875    7.07597626765079
H        11.43466592146868   13.05447986972884    7.28492920616153
C        10.88292858093699   10.63063615787356   11.61351010017092
C         9.87845528653020   10.08268281047217   12.41415900439310
C         9.64153167265281   10.65898492993893   13.65480026721325
H         8.87053062999115   10.25708086005586   14.29299145397617
C        10.38729660840530   11.73903586972839   14.08695232863983
H        10.20043166034680   12.16677952903621   15.06034347813011
C        11.37305752543749   12.27338427876222   13.27930631519972
H        11.94241169631096   13.12112048092574   13.62652767279000
C        11.63816245915024   11.73106914004953   12.02816250719082
C        12.69553012006526   12.34350861253395   11.13914846546720
H        12.81404178512746   11.72534293638238   10.24483134991304
C        12.25169705251293   13.73300808483237   10.67335538062673
H        11.33411396707290   13.66238050217034   10.09070681363289
H        13.02119905899323   14.17866306841235   10.04787032836591
H        12.07768620819091   14.39076831557288   11.52117212223989
C        14.04809944056513   12.41211765360795   11.85087901483469
H        14.01967831109422   13.11111287279884   12.68170432858457
H        14.81695590528602   12.74410400677449   11.15723287196825
H        14.32956424741823   11.43464080630005   12.23725967841676
C         9.05702482351932    8.90292152822210   11.94996758813150
H         9.45513567122289    8.54401226771257   10.99619953676990
C         9.12384001467339    7.75246438793676   12.95681112681767
H        10.15771609693481    7.49603608375172   13.17864393566476
H         8.62885955806145    6.87292863647372   12.55189629545899
H         8.63200731830451    8.01798958612679   13.88826570733877
C         7.60825611725136    9.33099239309480   11.70308928480323
H         7.16632517793700    9.74856574880403   12.60464691002170
H         7.01459860048821    8.47480779652970   11.39111216823322
H         7.57137010196842   10.08405189350449   10.91764994419595
C         8.35432183561407   13.02869080331380   11.42107731660128
H         9.42799359327583   13.11203830960223   11.47133319200554
C         7.56931900529989   13.26418439208864   12.52545093504987
H         8.01690960793346   13.54310069960217   13.46382150281695
C         6.19214065041230   13.12236796435215   12.39745879112987
H         5.54743309070860   13.28338087339477   13.24828988776236
C         5.64069199179582   12.78991996416436   11.17532784674468
C         4.15772963794598   12.65381159857115   11.00981840925889
H         3.66397123895418   12.81344346130356   11.96435326722526
H         3.88976066414914   11.65762343889643   10.65636760618444
H         3.76981680486206   13.39335203244857   10.30809455857911
C         6.52705929373632   12.59668669085354   10.09258479589648
C         6.56123747989178   12.33462927879392    7.60363369709005
C         8.38858936298991   12.37669417390142    6.21243666709962
H         9.46575997375943   12.35801032766023    6.14686461680999
C         7.62052758279364   12.46809175973122    5.06805229671824
C         6.23218855042135   12.44520341341886    5.23258651161229
H         5.58462109180026   12.49266426069207    4.37021420556133
C         5.69985265023764   12.37714068456324    6.49727591067247
H         4.63116333964106   12.37148400508763    6.64786896070870
C         8.23131785318051   12.59565946072574    3.71276440103480
H         7.92891187733230   13.53621507611274    3.25406348811788
H         7.89047745407717   11.78897033618478    3.06643671402651
H         9.31482363228397   12.56552563181626    3.77236634001900

