46
CSD_code = YOQWEJ | q = 0 | S = 0 | Stoichiometry = C22H16BrCuF2N2O2 | MND = 5
Br        3.33244099438137    6.15772066224231    0.83072090806652
Cu        3.18823671535520    5.83879331602869    3.06566684482640
O         5.01318338308629    4.22913995911252    3.89893445003840
C         6.28386414203080    3.88786963040525    4.13985169841820
H         7.03694020871247    4.62847673596973    3.95742142094592
C         6.36590620856336    2.59790759195923    4.58297464724101
H         7.25728569380237    2.06820072055612    4.84864733929414
C         5.04839466042063    2.10932614454895    4.60906455138436
H         4.72235667672239    1.13206699387820    4.90049744313272
C         4.24371373979674    3.14857849130924    4.18069936772936
C         2.83730414360249    3.20098851201917    3.99687056300372
H         2.29793849062208    2.27058373384164    4.17265679331268
N         2.21710064887413    4.26325236384730    3.60285316069116
C         0.82595910369381    4.22552287782328    3.47006167715024
C         0.22648805272485    4.68324629616241    2.29587536797706
H         0.83922279609467    5.04188162918196    1.48380624213839
C        -1.14745165587489    4.65667725361258    2.16229384075153
H        -1.62265211226599    4.99548733390020    1.25561839600237
C        -1.91719426754914    4.18777744115705    3.21419599081669
F        -3.26071113195719    4.17642439644743    3.09402461288260
C        -1.34676240812931    3.74114210228387    4.39277197946045
H        -1.97527608803405    3.38888090235309    5.19525228869177
C         0.02967856286875    3.75179655329121    4.51304881676374
H         0.49412192887601    3.41918161942885    5.43019202664528
O         1.24479122866820    7.19138519355490    4.07676786403671
C        -0.05127596281545    7.48025886273734    4.23775617589454
H        -0.76345865844055    6.83084347605176    3.76876359177410
C        -0.20874837247338    8.60457104343370    4.99814611294246
H        -1.13460794412412    9.06091153591322    5.28143767974271
C         1.08714369849244    9.04155280440215    5.32223849941951
H         1.35855751943672    9.89754903073497    5.90525357633516
C         1.95552368670319    8.14044256968054    4.73500812748369
C         3.37456160280355    8.11183813508416    4.72324867966822
H         3.87333519331961    8.94698381285674    5.21441342457090
N         4.05568811936062    7.18608242581141    4.13416246207025
C         5.45190833235497    7.23078033883401    4.19342049735206
C         6.20232401781450    7.11744364048209    3.02225788331270
H         5.70310209989283    7.02082849250941    2.07089787992717
C         7.58154968063746    7.15113196790052    3.07632305170107
H         8.17322395641668    7.07734999731508    2.17786656394859
C         8.20413593996664    7.28000089796430    4.30712998870012
F         9.55175995737775    7.29542818852068    4.36568414095168
C         7.48190693510905    7.38114989122872    5.48280757751608
H         7.99794390939157    7.47338116830574    6.42535048646614
C         6.10160805992293    7.36710853853433    5.42036851290786
H         5.51893851374606    7.43275472679322    6.32799679590069

