38
CSD_code = YOQXAF | q = 0 | S = 0 | Stoichiometry = C16H14Br2N4OZn | MND = 4
Br        4.57822803563139    1.14887632965590    3.41322740217555
Br        8.32503574494076    2.40288211625048    1.43039284455670
Zn        6.10436612868381    2.50848881036322    2.27544271436388
O         5.57167912546399    6.42943924531032    1.27516144370457
N         4.97567579539583    4.53371360590396   -1.30060250860837
N         5.13138236971296    3.31048373879479    0.53340985311967
N         6.36282502494537    6.24758938618973    4.41608555091483
N         6.29282428553467    4.20659064183469    3.57300565160881
C         4.21350501345052    3.41477127443247   -1.53294042965652
C         3.46032773394969    2.99915402433866   -2.61961488109523
C         2.80837609427283    1.78946118378788   -2.49606823371310
C         2.90075597196144    1.02260582378738   -1.33176423977144
C         3.64888029862421    1.42840355228060   -0.24742694950797
C         4.31694706230707    2.64351859007027   -0.35711448466528
C         5.50638915974805    4.41830154168931   -0.06130018985735
C         6.34908814438681    5.48709170630457    0.55328210879218
C         4.90311142476306    5.90957541915610    2.40931225558250
C         5.84565701755413    5.43287228928982    3.46603880214921
C         7.20078848270640    5.49052047672927    5.19968823159505
C         7.98447734746652    5.78532912188062    6.30408130116111
C         8.70992446804964    4.74374125842438    6.84534780762904
C         8.65719229762067    3.45380648426315    6.31044548382560
C         7.87938756154832    3.15355557371501    5.21345193924122
C         7.14478446706445    4.19235017173421    4.65397818540254
H         3.39009509653411    3.59493639740498   -3.51634727851255
H         2.21076076209308    1.42559203357222   -3.31775343102618
H         2.36988687662065    0.08474040962727   -1.28125901353512
H         3.70667285240266    0.83136091534169    0.64780556265772
H         5.13009316669472    5.29803599396281   -1.93761649473059
H         6.84439620982372    6.06935948049972   -0.22675234078176
H         7.11398948537617    5.03427108047523    1.19364945452449
H         4.30329980325894    6.74120908501488    2.78725877081132
H         4.23684970787186    5.08318920874003    2.13006472650968
H         6.17565685606977    7.23212469118379    4.51337106242738
H         8.02390396825888    6.78094544225489    6.71757987874103
H         9.33482734834356    4.92785191558794    7.70569011547849
H         9.24314585978481    2.67383554847930    6.77099915073028
H         7.84231295109435    2.15542543170885    4.80529017773473

