29
CSD_code = YORFES | q = -1 | S = 0 | Stoichiometry = C10H15Cl3Ir(1-) | MND = 8
Ir        5.01032366038587    7.73342108554826   15.07220961613878
Cl        2.68802263268538    7.60091203886005   15.27365825064235
Cl        5.28351784702269    7.58616504250039   17.40556358312072
Cl        4.88432449892692   10.06764997411592   15.15462148935260
C         6.00913406287956    5.78800116870295   14.55625355919875
C         7.00962252945653    6.83112162799662   14.55742714737692
C         6.68471685545369    7.74995576322074   13.53182035236144
C         5.45273654293167    7.32037882679539   12.93002849867735
C         5.08774614781653    6.06530715435861   13.51566529482549
C         8.22753179645114    6.80723893824385   15.42438398242584
H         8.83504445421963    5.92660049062336   15.20143484661033
H         7.93465829691307    6.76504963244083   16.47329965661398
H         8.83126086787501    7.69966677810696   15.27739330855433
C         7.46520918688864    8.94631330189180   13.09019191726185
H         8.45397338228752    8.95708262735523   13.54369790441549
H         6.94495259129426    9.85994062981320   13.38301129686579
H         7.57433846341072    8.94335781415381   12.00478730329162
C         4.81961828167945    7.93816971930383   11.72353165727220
H         5.27847083974073    7.55422096019043   10.80687077122540
H         4.94220913114511    9.01870775654128   11.74678554649901
H         3.75522619872600    7.71603402844636   11.69987304886946
C         3.93826882946675    5.21892369909581   13.07034933919601
H         4.03011383480042    4.20572101621572   13.45614181047321
H         3.90028551952470    5.17973120159651   11.98137774903044
H         2.99977555738292    5.64107878237989   13.43482612702011
C         6.08753324505894    4.56171748755155   15.40840010347151
H         5.16656607102824    3.98669026054900   15.34989996359301
H         6.24540052574485    4.84329566769611   16.44849338758241
H         6.92161814880374    3.92904652570381   15.09210248803431

