40
CSD_code = YORFUJ | q = 0 | S = 0 | Stoichiometry = C18H14BMnN2O3S | MND = 6
Mn        7.14484494508855    1.23585691532385    2.28745591091976
S         7.54100992890388    3.34839742499473    6.36641632333455
C         6.01804442950586    2.27371125858191    1.37905603328622
O         5.27275571626406    2.91232417563371    0.78489506510942
C         5.88424353874783    0.00954661744171    2.56830693228954
O         5.05367054281542   -0.76745151936404    2.72122014321887
C         7.62320811809047    0.41701174520151    0.76803608526260
O         7.90163185809634   -0.10766623863193   -0.21481473238093
N         6.75494500945503    2.18192057666853    4.04179953869976
H         5.83774274940318    2.43607097466994    4.40487841088104
C         7.73207038241613    2.52375661297876    4.82016224056814
C         9.28176396158989    3.32271627695151    6.57139416295471
C         9.99699754397848    3.82660455054976    7.64049233176814
H         9.48504295585958    4.29985723408096    8.46308481795132
C        11.37448696598455    3.70469367054531    7.62028798017537
H        11.95560884738016    4.09150439897285    8.44257672326517
C        12.00845144946081    3.08611473433081    6.55099872450348
H        13.08346122048289    2.99428204597507    6.54906121973515
C        11.29092123999474    2.58185981690013    5.48208899810209
H        11.79183846361476    2.10002925731234    4.66024248773485
C         9.90673742371169    2.70148562515251    5.48081016914646
N         9.01850911965021    2.27166830223340    4.50717848349491
B         9.23008227925253    1.57995351847891    3.18328100954420
H         8.55632305364298    2.28736133074628    2.26518402271556
H         8.45416659652960    0.48610944639934    3.20109143332371
C        10.71650928429029    1.25642193646869    2.71284478885971
C        11.30629569597841    0.08900484507305    2.97286415071560
H        12.30991762823925   -0.13886838631220    2.64847744234107
H        10.81242125408978   -0.68105454660620    3.54331531757512
C        11.42253453652839    2.27144361190557    1.90362162199507
C        11.31131342746061    3.62880622821138    2.20100100085926
H        10.71036660535191    3.94948051032921    3.04036932790206
C        11.97929661820540    4.57532003889617    1.44711329918455
H        11.88892040918809    5.62220979854782    1.69938837844169
C        12.75663305921749    4.18643488955803    0.36944374418762
H        13.27318263528329    4.92709509407476   -0.22292755219162
C        12.85873503941433    2.84286207604948    0.05047550858118
H        13.45243009730988    2.53243622249254   -0.79710656702685
C        12.19906799556811    1.89486632005722    0.80964338678109
H        12.26631737395373    0.85062260912614    0.54239163619013

