72
CSD_code = YORGIY | q = 0 | S = 0 | Stoichiometry = C35H27BMnN3O3S2 | MND = 7
Mn        1.79930394917014    3.04913536294109    8.49915749533066
C         2.83545360193911    2.79174791801128    7.07553574986864
O         3.47894795382958    2.65156329939520    6.13173136405496
C         2.49300200158555    1.88205745145821    9.66120091730566
O         2.83720717584902    1.08623810992981   10.41684076365286
C         0.73733377438498    1.73306569626402    7.95479296836845
O         0.07543053347352    0.84944466544361    7.63468026708274
N         3.08336584351539    4.61074644407407    9.08095885971160
C         4.41643052716586    4.58313060925847    9.42516850764482
C         5.26196606696950    3.47700135644646    9.37955355697503
H         4.87891327587128    2.52540609091098    9.03625043199327
C         6.57849308227799    3.62854912500727    9.76145886264850
H         7.24004854444079    2.77666042788295    9.72877812062831
C         7.06984891491368    4.86117112531386   10.18377096991668
H         8.10379538536974    4.95237416517092   10.47870785241149
C         6.24945229966331    5.97168840979401   10.21967350269233
H         6.61980653411089    6.93484363801069   10.53328751973456
C         4.92806555592957    5.82515713597748    9.83584593698759
C         2.59382169500995    5.82429931989387    9.18498848441791
N         1.32054431205519    6.09121997109736    8.84625747487004
C         0.86318455373819    7.35818921191688    8.89210016952135
N         1.55408128940732    8.35694528731196    9.31507607151373
C         0.85461884065973    9.52561022007374    9.24362577092531
C        -0.45606665510998    9.39169448472491    8.73619194330545
C        -1.28962777831529   10.48590439264595    8.60166817467794
H        -2.28873062315619   10.36976403710306    8.21195234077517
C        -0.80587015202871   11.72531054226499    8.97853596708520
H        -1.44024761294086   12.59305239818522    8.88110393326445
C         0.48463744106844   11.86871501271194    9.47971898132874
H         0.83580697330752   12.84881398493838    9.76523338406773
C         1.32160836484114   10.78053300223717    9.61685419191257
H         2.32383165246364   10.87674761983772   10.00224420901666
C         0.52824283792571    3.67049852113048   10.52612932260891
H         1.22844135718680    4.40682948006277   10.92674427686847
C         0.10583303658594    2.68519486450070   11.51693235743314
C         0.58747314792657    2.79092939026134   12.82442762109175
H         1.25973157993106    3.59944681847466   13.07929154198349
C         0.21795179241509    1.88311603355879   13.79380741887350
H         0.60167050889063    1.98657156529429   14.79889395019189
C        -0.63711201257245    0.82767098585288   13.49392634222447
C        -1.10875334806302    0.71241930877693   12.19193378644708
H        -1.76481573391308   -0.10664998251833   11.93388008178890
C        -0.74589366869551    1.62007816543718   11.21802450104380
H        -1.11300765486709    1.48313156702227   10.21130034620293
C        -1.02135122750435   -0.15789598534757   14.55302667236758
H        -0.13443976233305   -0.65143022374207   14.94895242524639
H        -1.69255536571667   -0.91535476247710   14.15662161484755
H        -1.51621000467610    0.34827944090548   15.38135281799676
C        -0.09157723935589    3.92339212658359    9.32365943735361
H        -0.97005501148030    3.32597393528636    9.07938238963570
B         0.48608934504571    4.92934506612095    8.29962889743702
C         0.61131733579255    4.57653308421293    6.85277576862913
C         1.43189634790383    5.41441801830393    5.89384731037644
H         0.77770930312992    6.15247430755201    5.42212230068813
H         1.86668709579496    4.81117568339755    5.09905498963838
H         2.23694452357107    5.94821797588685    6.39818105624301
C        -0.38820331255587    3.73353692633876    6.15581029172760
C        -1.74205932485182    3.87364451270054    6.45901237822977
H        -2.04223475598581    4.59514694372828    7.20666385906730
C        -2.70104905064737    3.12299131285381    5.80507943382229
H        -3.74313350204752    3.25177458188270    6.06328141958473
C        -2.34569831009365    2.21242769370582    4.82052325289477
C        -0.99792587457634    2.08309012222973    4.50223115594412
H        -0.69934286890538    1.37973703179973    3.73787821092550
C        -0.03791415577936    2.83101300045074    5.15093117282436
H         1.00300903478466    2.68843579540852    4.89742317260319
C        -3.37413584164117    1.38963256454239    4.10675299865581
H        -3.38717734549941    1.63684278388540    3.04540667124483
H        -4.36644419872019    1.56457748975748    4.51499539410010
H        -3.14049332405378    0.32973596639527    4.19757226000600
S         3.68533924075240    7.06030532815891    9.75187416611842
S        -0.77991091455867    7.71826204538987    8.34732219134306

