44
CSD_code = YORGOE | q = 0 | S = 0 | Stoichiometry = C15H23BO2RuS2 | MND = 9
B         6.39080735004474    1.44949682753965    8.31460988823457
C         4.88726869573570   -0.39237519625035   11.58629840489053
C         4.11423933697783    0.67766123472402   12.15241315416223
C         5.01537372623901    1.62070800581483   12.72275836009774
C         6.36019561114288    1.14925864370595   12.50233352659596
C         6.26609034423305   -0.11586201140653   11.82312227483048
C         4.31717648387649   -1.67034926971167   11.05721612115139
H         5.06095192986742   -2.22872765902866   10.49304742845757
H         3.46372719157393   -1.47236311992150   10.41016578225167
H         3.97766019831462   -2.29064006958751   11.88907675673309
C         2.63304046450605    0.65630363324413   12.35985962742159
H         2.41392825700488    0.22163982396433   13.33778271881773
H         2.14442742101924    0.04922359706506   11.60191664284346
H         2.21396390322804    1.66120020700839   12.33368728217510
C         4.63783004056764    2.79225176037767   13.57555325073368
H         3.65771917086103    3.17639338333273   13.30031619796799
H         5.36175027284949    3.59977672429397   13.47676144393258
H         4.60553932972849    2.48604083730615   14.62307064088335
C         7.58567118653588    1.70861339064547   13.16114064397790
H         7.52969917585755    2.79366832646932   13.22851117944759
H         8.48463179196743    1.44605337907129   12.60734957013090
H         7.67700946680217    1.30701368229815   14.17254831629500
C         7.39978107023180   -1.05852026916801   11.56327048788923
H         7.46548519964498   -1.78118675468810   12.37921273140616
H         8.34652295464516   -0.52741332939644   11.50016571252968
H         7.25111916349321   -1.60509621103936   10.63387970315710
C         4.94476610457592    0.91822357688201    8.55931616854459
H         4.69151590662067   -0.14035777661712    8.47016432290874
C         3.89363305216614    1.77051741374137    8.93826771969612
H         3.87015280791780    2.81354092014980    8.61500064708079
C         2.55212842550457    1.21636692788116    9.13142459673286
C         0.27362310333797    1.76478078047233    9.30665093079665
H         0.03506475174112    0.99747604383043    8.56609635367015
H        -0.34553461940249    2.64620204093884    9.15745502423705
H         0.10955246322040    1.35050627779094   10.30501750676383
C         6.13415489704202    4.28278427356955    8.91388814702672
H         6.23435608148186    5.33548576767149    8.68993160862828
O         1.61599545519772    2.19152390134473    9.15907292365421
O         2.26341071684419    0.04107123120009    9.23483752408527
Ru        5.45205504196826    1.54252163753633   10.56709607001789
S         5.65083810660717    3.90298610006899   10.45670100341663
S         6.53001372109917    3.25890199193251    7.62923335028490
H         7.18209166957771    0.77715459188107    7.76299057242406
H         6.82617257756196    1.59474473305748    9.67938768302384

