57
CSD_code = YORHAQ | q = 0 | S = 0 | Stoichiometry = C20H27O6PSi2W | MND = 6
W         3.72050509724976    8.91291343387548    9.45964298632390
P         4.12490680050749    6.54957695565439    9.95689355298804
Si        5.75498040848588    5.22793681201642    7.73309476904431
Si        2.88152372306108    3.88430488450688    8.79811919514078
O         3.06191689266705    5.98650768535842   11.11510008481048
O         2.94322844233793   11.86855218669068    8.79539993102096
O         4.27219657631498    8.50578567202349    6.40058532189001
O         0.80419509219611    7.91662605601962    8.86894493258468
O         2.71950380794823    9.40665344435321   12.39294731338932
O         6.66009229970549    9.91908195332115    9.93003498086643
C         4.05517131569369    5.56967031625351   12.06346473675440
H         3.87142562906080    4.54128283326689   12.38108558109908
H         4.03347566652053    6.21709663741567   12.94381736458179
C         5.30490672497092    5.75638942042176   11.19105162643885
H         5.67371230703114    4.80234940972774   10.81005498456449
C         6.41302300529351    6.59036935943599   11.72641741083093
C         6.14937645614474    7.80773551981047   12.34644725546085
H         5.12681733171052    8.13578829206683   12.46883389443695
C         7.18217416153292    8.60131830726941   12.81190713874214
H         6.95898515775806    9.54439900936470   13.28799531237224
C         8.49584627491983    8.19347791500346   12.65855719964624
H         9.30230344723885    8.81588032139265   13.01528971646852
C         8.77037861510868    6.98383833411594   12.04318735990236
H         9.79281189004935    6.65872131011223   11.92018278417261
C         7.73777622129475    6.18834232853625   11.58197367268554
H         7.96046827154713    5.24767821610425   11.09824376186542
C         4.01114326161758    5.42260128255703    8.53338001926073
H         3.45326466377121    6.02657224853518    7.80798286162410
C         5.52734290342528    5.17925784939605    5.84210413414502
H         4.94433305536866    4.32246595732696    5.52369264315160
H         6.49091514925834    5.12162403637618    5.34641430592822
H         5.02797585149359    6.07186391561863    5.47861519896605
C         6.87383331676772    6.71014624137007    8.16305002283254
H         6.60368256118311    7.58939523958247    7.58543135811501
H         7.91547254378678    6.49141881122518    7.94522049613966
H         6.81185519688398    6.97934409824999    9.21380079630476
C         6.61418528654378    3.61526428156705    8.29431119027922
H         6.97103994213456    3.65906837903849    9.31835128033635
H         7.47815948701805    3.42892516242785    7.66449320486085
H         5.95760770349889    2.75619591624291    8.20879809878688
C         1.10065557315795    4.47966893253768    9.11897303186817
H         1.05211891686700    5.12579243506085    9.98961284099003
H         0.42872568665893    3.64262494669185    9.28597711302673
H         0.71644402012265    5.04242875166637    8.27251077461392
C         2.88293951275411    2.91283874464373    7.15530378920786
H         2.60125336884158    3.54283351591786    6.31855184257601
H         2.16544482221902    2.10088624950656    7.20508327462426
H         3.85106106045497    2.47892307566235    6.93114713359720
C         3.45424712206782    2.69051170044122   10.17650998106845
H         4.52655006985833    2.70783402858535   10.34013469015743
H         3.18219512393269    1.67177226492815    9.91776437664456
H         2.96710701051416    2.92210145381505   11.11775969202469
C         3.24006700462274   10.79127014806241    9.03937783164347
C         4.13362949005624    8.63593326772815    7.53033705965144
C         1.86121633000810    8.28717314749007    9.09304189491540
C         3.14862318245365    9.21347591648620   11.35182130003579
C         5.59630916630788    9.52371138714603    9.79627489454041

