50
CSD_code = YORHEU | q = 0 | S = 0 | Stoichiometry = C15H25O6PSi2W | MND = 6
C        -1.68806332488860    5.73016238188397    5.69310848467440
H        -0.78571593685281    6.30130685551122    5.44263204654575
C        -2.58378856885581    5.52550341449533    4.46611960669453
H        -2.46098501744052    6.24125186996610    3.65672140999066
H        -3.63155280262726    5.43279777488611    4.74790203373738
C        -2.33607080510444    6.32498649827242    6.92459109138496
H        -3.26810496083738    5.81563306338288    7.15103423508559
H        -2.53813901965181    7.37915686136873    6.74969757381136
H        -1.66737652362443    6.23071155481739    7.77653985864215
C        -2.91412832792519    2.51658961849323    4.44405045527938
H        -2.38162379520184    1.71097533646282    3.92504666442480
C        -4.03346385562796    4.10275531918852    1.95641931412276
H        -4.46887697171946    3.80266582910821    1.00783924981676
H        -2.95810774125514    4.18201906134910    1.80829323311321
H        -4.40988059868323    5.09567588082341    2.18241888517920
C        -5.94284363650913    3.47436372356594    4.33464599266085
H        -5.77336210516565    4.45230407153374    4.77463796673642
H        -6.20096363216104    2.79112616925064    5.13647843046547
H        -6.80957240323634    3.56024627408973    3.68712995663504
C        -4.89701510923768    1.18220223515174    2.50262985810727
H        -5.78419711285493    1.28867067569015    1.88681676808746
H        -5.09673251869735    0.40595547954772    3.23309820541779
H        -4.09438656704186    0.83232359994529    1.86052179447964
C        -3.92600535290097    3.04807424662916    7.46439923640448
H        -4.45062423120956    2.49440920356247    8.23705916409633
H        -4.64613008896065    3.70509301677836    6.98841987085203
H        -3.17668201697760    3.66094457242200    7.95269146013802
C        -1.37710191451837    1.32673241584616    6.84872173966445
H        -0.68145446966888    2.15656290377266    6.76602633195602
H        -0.97806993563671    0.50108597847942    6.26600218067327
H        -1.39826616991903    1.01209501313317    7.88794567308579
C        -4.20009487408897    0.28278388180731    6.11328241261481
H        -4.24464994503661   -0.21670116401735    7.07486324323441
H        -3.80773132263650   -0.42955341980445    5.39546183041256
H        -5.21740864982622    0.52010556805731    5.82192460342138
C         1.71999632664871    3.36624741507478    1.58607863442373
C        -0.39826866235291    5.19908372568380    1.73335052787918
C         1.23638026548851    4.80978995697739    3.98353828952606
C         0.73098330012638    2.03375531997824    3.89019985477919
C        -0.92524182960007    2.38365137194998    1.66405322277628
O        -1.32150841452824    4.33937667619813    5.87486255001767
O         2.61892177683565    3.22989860941475    0.89359344559881
O        -0.70905276155291    6.12835575679110    1.14224639185060
O         1.84554672505323    5.49154805921888    4.66792930494126
O         1.06076791354948    1.12642536539150    4.50024512475839
O        -1.55119011253987    1.65305466568692    1.04366488085616
P        -1.72670622587907    3.88504270026265    4.32589902788349
Si       -4.44912527473572    2.83985163612979    3.32846488959063
Si       -3.10487847047877    1.84122748397990    6.23632363784587
W         0.16514575056476    3.60897549179364    2.79927935563070

