50
CSD_code = YORHIY | q = 0 | S = 0 | Stoichiometry = C15H24ClO6PSi2W | MND = 6
C         0.72384894094701    7.85569871233595   11.14902531563044
H         0.47985687192626    8.90220623023424   11.32436986912221
H        -0.15852268886006    7.30089436499173   10.83972200951869
C         1.51550897760070    7.25715613401792   12.31417670127292
H         1.31088911343352    6.18792445818509   12.44669504594922
C         1.38427510432026    7.96138568405704   13.65043197939215
H         1.57522234236929    9.02860628830183   13.55076322456946
H         2.05734635341901    7.52684217596335   14.38954561445751
C         2.91529756228586    9.20642194564556    9.56520899522081
H         3.51632527827428    8.89104062320946    8.70436103038258
C         5.60655800751699    8.75637870707721   11.02199205484172
H         6.15416580696565    8.55237532385634   10.10615208651048
H         5.20015437508554    7.81531493406262   11.38110368752780
H         6.32242838299010    9.11226957122003   11.75703805451645
C         4.92167541742281   11.51850593164964    9.78937135840167
H         4.18305404545319   12.30039067749594    9.64998963413342
H         5.29595673176001   11.23816493311452    8.81053966594370
H         5.75000769056124   11.94771812123204   10.34248761767361
C         3.50974092093224   10.64216374236099   12.39512000363291
H         3.63968148328312    9.89166598971277   13.16752534279953
H         2.45693169352785   10.89669101622650   12.33776644938305
H         4.04189276572128   11.53306505032148   12.71375350341363
C         0.86009584955504   11.59760855379887    9.95113974537482
H         1.66479249103123   12.24657954938372   10.27962141238648
H         0.37268834148250   11.19982025507203   10.83604423745927
H         0.13166882655416   12.21603222415282    9.43660516990820
C         0.04154921499828    9.10281703962158    8.26875010213555
H        -0.78383611757545    9.15374948842030    8.97203050773163
H         0.35846345820993    8.06343885568955    8.20389594206950
H        -0.34986951436509    9.38195898423156    7.29498984960458
C         2.20737800661517   11.03626414552163    7.19532754192758
H         2.50559193633848   10.28318296821871    6.47212596687100
H         3.07539955875918   11.65048474344594    7.40829226333915
H         1.46663155203086   11.67015777582808    6.71879879157911
C         2.87876607550813    4.05128224788701    7.62020275860120
C         2.53555727961042    6.81184524988530    7.13880554450553
C         0.62379162236057    5.34100676942837    8.68124931018541
C         2.68726214250356    4.54333028651737   10.42141905677870
C         4.56618131995575    5.96063875421036    8.85846107596189
Cl       -0.28129034778479    7.76381024064608   14.23939240862764
O         2.83178333909515    7.43454567108510   11.75721583501751
O         3.04638643227999    3.12778125933222    6.96921385192311
O         2.53677632872685    7.49991163844389    6.22440814649006
O        -0.50352984775338    5.15179998742049    8.65312593215260
O         2.75086745777858    3.93074550593313   11.38246722306586
O         5.69471122572851    6.13041440939328    8.89384447609457
P         2.29169643316084    7.61930749356734   10.17924180823800
Si        4.21198419352687   10.01930641640389   10.73307167637455
Si        1.49363566643684   10.23779640617724    8.77088966991790
W         2.59447189830250    5.65350246500822    8.76183045139061

