91
CSD_code = YORJEU | q = 0 | S = 0 | Stoichiometry = C27H54N3S6V | MND = 6
V         7.74589365633754    5.79429402117085    7.35775562550313
S         8.07880778131424    4.22287157110244    5.72411529661194
S         8.69846327216965    7.01072165003842    5.62222140925755
S         9.68935319442839    5.46984772457839    8.56006340779524
S         7.76669713292035    7.53812805943089    9.04838186549041
S         5.54154884331701    6.26029806044336    6.95389461862689
S         6.51118326361751    4.38516473331030    8.89125491267512
N         9.91868326334902    5.22022853208504    4.06367902052149
N         9.75627643442870    7.02762975666162   10.72609478431948
N         3.92321042852113    4.92194366415990    8.59619910186920
C         9.00413666226721    5.45986581500013    4.99900037086033
C        10.60435119612847    6.30209113916133    3.39177176195958
C         9.99365462204435    6.61904891540856    2.01624788216602
C         8.53117166462023    7.03162109187576    2.14642324232228
C        10.80920242212667    7.72532163570020    1.35293611315825
C        10.29503455612909    3.86940762850643    3.70815169059038
C        11.57981093956163    3.40566813577093    4.41664670713645
C        11.42412002353803    3.44467801228409    5.93348034078924
C        11.92086833248896    1.99381497193758    3.94763762319321
C         9.14088321737246    6.72308941215713    9.58240936298939
C         9.73611107393332    9.50171794774059   10.93365294622944
C         9.29008032783110    8.14983952480487   11.51368684686057
C        11.25744153566000    9.60395622604368   10.88052662862015
C         9.14479300361782   10.62905513761373   11.77405658268033
C        10.78305161481395    6.17522691417738   11.28164096417531
C        10.23141479393951    5.20264714156995   12.33886297472545
C         9.19126317059674    4.26250290889876   11.73839029304946
C        11.39037083243687    4.41013137601295   12.93767406798993
C         5.17630377776326    5.14981884106144    8.20004073111834
C         2.82721506618850    5.74929251257207    8.14461576585112
C         2.48017752641408    6.86030954737833    9.15127776242462
C         3.66608108745466    7.79224689605682    9.37946563208373
C         1.27449800802305    7.64061653506975    8.63478979507333
C         3.61572709290497    3.84727201116637    9.51314798686618
C         3.12480883128469    2.58292332105445    8.78742818492575
C         4.18466533514697    2.05284704333374    7.82699576177661
C         2.75888403255357    1.52393798856135    9.82364992038763
H        11.65451101730432    6.02421405956379    3.27206220686595
H        10.54616765729911    7.19117771746719    4.02469092845287
H        10.04987032737278    5.71982265037508    1.39157722244023
H         7.93954277595914    6.23723524879700    2.59679264257045
H         8.44124445285946    7.91816119206241    2.76972945307125
H         8.11312739272336    7.25178565276679    1.16697710065672
H        10.41060553308829    7.94728437467455    0.36633546044482
H        10.76878848590479    8.63239828019271    1.95131192890713
H        11.85037338934673    7.42920281474896    1.24389556888295
H        10.43766048971651    3.82703418415331    2.62527753836274
H         9.47411338284718    3.20155986461324    3.97969698931707
H        12.39990015416318    4.07571270477286    4.13288743412264
H        11.21768935617147    4.45509486304329    6.28550739358352
H        10.60706514581639    2.80029932927941    6.25204756673418
H        12.33839281881051    3.10465969030734    6.41426833424926
H        12.84397696947974    1.65577833397545    4.41147102424474
H        11.12637198292534    1.30415217272172    4.22260906777834
H        12.04770116043060    1.96258034154734    2.86755193537494
H         9.34286672875264    9.57782444422735    9.91577121813437
H         9.67949576205191    8.03808805215460   12.52674630440205
H         8.19540481238489    8.12389367086232   11.54764955247851
H        11.67385931256118    8.82911131736199   10.24108391426883
H        11.55291996286515   10.56923021027833   10.47656090260535
H        11.68451417360368    9.50697885946912   11.87762016959532
H         9.43016274210689   11.59421083471963   11.36381870448458
H         8.05950364131167   10.56862991127703   11.78408513430852
H         9.50562990552259   10.57124553034746   12.79942315891788
H        11.55251844672394    6.80869721109747   11.73006352295756
H        11.23130285565675    5.60342395524433   10.46564087908871
H         9.75541790406743    5.78621701912988   13.13570479162358
H         8.35067428397768    4.81480394249109   11.32119969566199
H         9.63028426884769    3.66554868174662   10.94188114819560
H         8.80569072987273    3.59061015423592   12.50159268523199
H        11.02656297368157    3.73204999845414   13.70538597123875
H        11.88172661647952    3.82235463808059   12.16582249192340
H        12.12582079544831    5.07455903567036   13.38655694614498
H         1.95484687917864    5.10994124315352    7.98725582220933
H         3.10481754145012    6.20251275138431    7.19013981211838
H         2.21310957498071    6.39458167678958   10.10727122342441
H         3.40494381811355    8.56387312259556   10.09999991346019
H         4.52783785419890    7.24899944926113    9.76367847651236
H         3.95830452465068    8.27307537786714    8.44863620042562
H         0.99423902375984    8.41492801383063    9.34438081529908
H         1.51294203110333    8.11518074456827    7.68585941249759
H         0.41975495413175    6.98373785586671    8.48759658606866
H         2.84678576896231    4.19495724057390   10.20755652080055
H         4.52022493516581    3.61065653754946   10.07876555118800
H         2.22634735996575    2.83558391557548    8.21208962816992
H         4.43424171989613    2.79421248698297    7.07027727793239
H         5.09392287087538    1.80033807619651    8.36742796544768
H         3.82178784278709    1.16152146932503    7.32037895265416
H         2.38578205708930    0.62883965015343    9.33251817864065
H         3.63415554563856    1.25440127664434   10.40992852911905
H         1.98935927204770    1.89065176720604   10.49967416395057

