47
CSD_code = YORNIC | q = 0 | S = 0 | Stoichiometry = C17H21MoN3O4S | MND = 6
Mo        5.75240509226350    1.08116547191272    1.64840088027105
S         9.87628957696564    1.18637511333133    3.62444509030104
O         4.10302993153074    0.50659478585896    2.26211913896014
O         5.85413483639316    0.23667979259702    0.24111906121956
O         5.59996472068397    2.71267183803390    1.47344039971286
O         6.17512323821145   -1.47897092382190    2.67940985338489
N         6.06228474871424    1.15854365672891    3.76686255786854
N         7.35034700668628    1.23338615302325    4.18448423141845
N         7.73624918942935    0.93396612895376    1.94538562969090
C         3.28013777805134    0.87945439330199    3.21341041791224
C         1.88635622356337    0.78318561589111    2.97754021837266
C         0.99380678726108    1.13163878151562    3.94343248204088
C         1.42766419486805    1.59625452356356    5.20789260429163
C         2.81757478206562    1.70434825041227    5.47965866243697
C         3.75967744748249    1.33046906155038    4.46025750497184
C         5.16584170156534    1.38219465667247    4.68225443028987
C         8.18196086453899    1.11067139954490    3.18614573808092
C        10.67767533781042    1.40584254298651    1.98313976961521
C        12.12992960139959    1.81376892614051    2.18775463242111
C        12.89860142830115    1.89988968601614    0.86777287842522
C        12.40211541575398    3.01679718532913   -0.04320504615440
C         0.49052267940574    1.95819646218407    6.19454065606185
C         0.89666625676854    2.42050803269407    7.41618928706693
C         2.26354504266418    2.53911189591492    7.68658493726172
C         3.19762265882613    2.19184565888089    6.74483308847169
C         5.59276632766123   -2.41487505977254    1.78304285785258
H         6.10090353671939   -1.82769785671920    3.57716395286373
H         8.43788425258935    0.71533305610305    1.24313547589575
H         1.57241134530791    0.43369777745456    2.00362117597026
H        -0.06807095703657    1.06103597319050    3.75693878777720
H         5.55007769104407    1.62268722144621    5.67093495323620
H        10.12224199886881    2.18106469109704    1.45510190362908
H        10.62516145547350    0.45868951453808    1.44269665507362
H        12.61058267575869    1.07918256756047    2.83666716438753
H        12.16277978564167    2.77831806348919    2.69640325495237
H        12.82887079367186    0.94359013941477    0.34471334807308
H        13.95132238038623    2.07327921192073    1.09903265435873
H        13.04548560801261    3.10175244368750   -0.91550733193922
H        11.39036438116718    2.82432038009721   -0.39021062255353
H        12.41220406185845    3.96870079340690    0.48253088194215
H        -0.56086546762561    1.86588145054206    5.96352681324481
H         0.17356989471853    2.69754975933476    8.16829363860660
H         2.58481744099716    2.91138413425739    8.64811208291468
H         4.24097245479251    2.30778149343157    6.98918581470535
H         4.54806788466033   -2.61221550663177    2.04177395267579
H         5.64155628937880   -1.95207670832088    0.79730312254032
H         6.15776962476624   -3.35237262874166    1.78727035940425

