55
CSD_code = YORNOI | q = 0 | S = 0 | Stoichiometry = C22H24MoN4O3S | MND = 6
Mo        1.69814674160614   -3.52362717070615   -1.01781910150875
S         3.01433105165827   -1.87337455842351    3.02404810883812
O         0.35312689537113   -3.07533377679689   -2.25148779511162
O         1.61093416556252   -5.16750870125827   -0.97991347034506
O         3.04706739284642   -2.97256158569252   -1.79226006735292
N         1.28690064722279   -1.52360926612115   -0.39942174129608
N         1.75337444102438   -1.16023300529202    0.82639092648075
N         2.38682656741755   -3.37339237283445    0.89671649476394
N        -0.35062293613647   -3.71903584270345    0.31526743601526
C         0.15109652073298   -2.00691346131831   -2.97962291870555
C        -0.36884295072013   -2.17939833845634   -4.28852210950180
C        -0.64040310693606   -1.10729792123859   -5.07897679805618
C        -0.41940307454019    0.21325261672733   -4.62036833776426
C         0.10075077118864    0.42669381350072   -3.31589002198767
C         0.38822325512096   -0.70801239892442   -2.48133911424513
C         0.90532713388609   -0.54612868319950   -1.16130634169380
C         2.32520386208395   -2.16027229735535    1.43628748959340
C         2.91143839790761   -0.05342325858409    3.13556877869611
C         3.93197038008423    0.63345523897267    2.24422707520623
C         5.36936362688354    0.35830689566054    2.67684509912437
C         6.37182077315987    1.02214158557945    1.74189652816078
C        -0.70510840364619    1.31264898004938   -5.45179454279720
C        -0.48613212538984    2.59436620479665   -5.02716582058941
C         0.03314716818301    2.81293761501742   -3.74760796762825
C         0.31871535743442    1.76015748838893   -2.91716156993298
C        -1.44783888447846   -2.97885679880755    0.19234995363212
C        -2.64676806470934   -3.29006243782119    0.80931940266209
C        -2.73391727895619   -4.42885395344526    1.60324194197967
C        -1.58038836814873   -5.19911589868891    1.72448220750918
C        -0.42607220507419   -4.81269198158567    1.06911620963345
C        -4.00546904768852   -4.82406406843584    2.27674240655742
H         2.87905921571144   -4.05887601723814    1.46748818016311
H        -0.52555523729963   -3.19536683673707   -4.62378332562827
H        -1.03002103338407   -1.24777677772524   -6.07703826712771
H         1.00806216478927    0.45400841956608   -0.74458545026889
H         3.08411482665855    0.17224231087963    4.18756572788324
H         1.89436188397901    0.21105159894630    2.85430996006247
H         3.73954930928848    1.70928785867029    2.27545712738160
H         3.78419636757361    0.29678612404779    1.21617072238489
H         5.53992273895866   -0.71999563836141    2.68557915241717
H         5.51770511695029    0.72643123856602    3.69521164805940
H         7.38922519674520    0.81604300663041    2.06495815761285
H         6.25085245927400    0.64711082988090    0.72832444189192
H         6.22752412665222    2.10067687626062    1.72839844409137
H        -1.10000474399663    1.12105171221253   -6.43917939292448
H        -0.70575363148946    3.43352734820197   -5.66985071691631
H         0.21328228801465    3.82386585104133   -3.41234494206321
H         0.72584687812348    1.97538508176710   -1.94251099621262
H        -1.36939707208476   -2.09099775357033   -0.42552313854979
H        -3.50481655279181   -2.64986749110957    0.67118612719727
H        -1.58414242242374   -6.09663015933901    2.32357393939664
H         0.47794975364475   -5.40445612870870    1.12278143173724
H        -4.69260886673058   -3.98457305003517    2.34100690602100
H        -3.80888479325274   -5.20592941114488    3.27594294205775
H        -4.48786667584405   -5.61829165372099    1.70691898105516

