47
CSD_code = YORRUU | q = 0 | S = 0 | Stoichiometry = C14H18N4O10Zn | MND = 6
C        -0.79024387775337    1.08022833108843    1.47653410697730
H        -1.85866673094024    1.15146397479702    1.46505007975326
C         0.13597876741238    1.57473587929658    0.55108234417002
C        -0.13877446220315    2.31162634659206   -0.67841621361295
C         1.38907042302442    1.21638984642032    1.06329879995767
C         2.73856398510660    1.48075271612425    0.51611570351354
H         3.33615409942094    2.04532616779585    1.23085906027821
H         2.63693907992046    2.05709840294697   -0.39924396257823
H         3.25783232485134    0.54893127130229    0.29259297734077
C         2.11743444611090   -0.03074252162895    3.08287516319955
H         3.12102262795057    0.12895207426045    2.69385303367618
H         1.92594689025827   -1.10391757238629    3.18329711151797
C         2.02768089212725    0.60162140411114    4.53462782334995
N        -0.16152230223029    0.46687768845690    2.46571017657348
N         1.15480695491239    0.55118681487627    2.20103615465675
O         0.90417794189818    0.45594676702853    5.09692473138569
O         3.02470223695683    1.11442396942858    4.98644865808509
O        -1.45229293818283    2.48224392689904   -0.88386963771313
H        -1.59658088117970    2.97826707332651   -1.70456367640802
O         0.69433771092444    2.73007149660255   -1.44686999114049
O        -0.35416718203866    2.84934325091675    4.12785371808769
H        -0.03377625963514    3.30895329581604    4.90954521650502
O        -1.07542487119185   -1.53709870942686    4.63282070853848
H        -0.84346328214136   -2.01366934178063    3.83025879539098
Zn       -0.86408967124625    0.69902113707079    4.38511995099037
H        -1.19495607670003    3.24294994980501    3.86841796054009
H        -0.32489409788193   -1.60785837097502    5.23463203314185
C        -1.04580760845288    1.45126213637489    7.34203752514154
H         0.00747358918494    1.64426044054569    7.37917187876346
C        -2.02926772508585    1.70776368725694    8.30664575184646
C        -1.85539755039577    2.33656460862252    9.61142702140423
C        -3.22150043802854    1.22790331437711    7.74660694612745
C        -4.59540539257003    1.24023218893684    8.29642531778608
H        -5.26417370845329    1.79541533309973    7.63941179426177
H        -4.57845320263003    1.71297959710266    9.27440294996550
H        -4.97961123977379    0.22565562883804    8.39902135819143
C        -3.75860727809639    0.17327275280466    5.55243847648977
H        -4.77241671728003    0.07779886823164    5.93483362064865
H        -3.36919530597555   -0.79446768889571    5.23120464172832
C        -3.74762923996640    1.12806195117001    4.29237783705961
N        -1.59092235531490    0.86567487916860    6.29162834686601
N        -2.89824977436755    0.72706832641575    6.54843781390331
O        -2.60420931509488    1.29874785011985    3.77731100205283
O        -4.79251142740701    1.62470223026839    3.93947156433585
O        -0.58701325007780    2.72112133502723    9.82296132775465
H        -0.50850118013513    3.12564824295353   10.70076298599506
O        -2.72639662762265    2.51050904881377   10.42973101350272

