73
CSD_code = YORRED | q = 0 | S = 0 | Stoichiometry = C37H33P2Rh | MND = 7
Rh        3.38518428311542    3.69031259759671    5.38877175698175
P         2.97128246960461    5.88174740810808    5.46350229352371
P         3.84454241176870    3.53207632060437    3.21176275962090
C         2.98829802144895    3.18495686013596    7.48881437450442
H         2.96805797380184    3.82936258834884    8.35906936683421
C         4.10480403126302    2.42364005815683    7.06610952058978
H         5.10574046608090    2.47472879985431    7.47482261916945
C         3.68722372590282    1.60170320640533    5.99393613135040
H         4.29247404669941    0.83667378902833    5.52380322919753
C         2.23409726105747    1.59450251411553    5.97744482076013
C         1.30327669180558    0.84034068054146    5.26975011390163
H         1.62935832507627    0.09688592155360    4.55484406130468
C        -0.04249275893883    1.05198351572751    5.51445488828256
H        -0.77864271416059    0.46273116528519    4.98568978531881
C        -0.46824821393020    2.00510763616817    6.43579125969752
H        -1.52719816627409    2.13740652897131    6.60799017623565
C         0.43751615941191    2.78083622131241    7.13869529448847
H         0.09955092673712    3.51840137595290    7.85374833690430
C         1.79601300194795    2.57930852624670    6.91829363927690
C         1.55160754797480    6.32637313857902    6.51889690939093
C         0.29474865505132    5.89395701896574    6.10157119572646
H         0.20603522773394    5.37090841519119    5.15847426351281
C        -0.82050011633021    6.12385675510915    6.88378495112705
H        -1.79259370464202    5.79056375309758    6.54989029588758
C        -0.68838331550245    6.76836399543445    8.10396508239576
H        -1.55784921568952    6.94302400288652    8.72093764680942
C         0.56205961747854    7.17611978281678    8.53697377250185
H         0.66837655533169    7.66636373744633    9.49424837204378
C         1.68010187579117    6.95514817441965    7.75115345639326
H         2.65430411494256    7.27079564681914    8.09797489084902
C         4.30385983763657    6.92220017326467    6.16420543297825
C         4.27016909486651    8.31128456656641    6.11374493980517
H         3.42996113302755    8.80812009295778    5.64870656428458
C         5.30684164369262    9.04592359499733    6.65964933058761
H         5.28010829390443   10.12545316536507    6.62068768454142
C         6.38009770990793    8.40193927767823    7.25604283627495
H         7.18776640551456    8.98098928162769    7.67964077383657
C         6.41857308970975    7.01813155042862    7.30721519127198
H         7.25590644640423    6.51677154129398    7.77076257011451
C         5.38328480737480    6.28171072771191    6.76058497463386
H         5.39551152750396    5.19479519403790    6.78005681671620
C         2.64140245335467    6.82784092675898    3.94484120710382
H         3.40731232023537    6.67161939865728    3.19028105410222
C         1.59714962753630    7.59947254088213    3.68779039472504
H         0.81406812586890    7.76683007940760    4.40975420802875
H         1.48262038027640    8.09674003953148    2.73691031193426
C         5.14063536682231    4.51835750306524    2.38086605534682
C         5.83601077124255    5.46805801175849    3.11691446122013
H         5.59694117626645    5.58979978020940    4.16684258730437
C         6.81607806773315    6.23925870210619    2.51810411104860
H         7.34947154686653    6.97861778793982    3.09797378408510
C         7.11052854828896    6.05813135313469    1.17703869795286
H         7.87526082137467    6.65749289276493    0.70498659114099
C         6.42932125381039    5.10148522193828    0.43992493708009
H         6.66737099691563    4.95512420176058   -0.60393600869656
C         5.44886187838811    4.33141168704760    1.03730486936018
H         4.92960948608912    3.57335343922843    0.46620322862774
C         4.32346525017372    1.86640868656895    2.63136277945040
C         5.64942161253944    1.46915289065221    2.77763313631711
H         6.37552085446290    2.18047044701065    3.15051488707516
C         6.03037780265642    0.18108845726879    2.45379446898681
H         7.06197282596466   -0.12113014614890    2.56481968904861
C         5.08807836557015   -0.72573745844706    1.99374042437611
H         5.38507992518467   -1.73386750859396    1.74389275929499
C         3.76424786821390   -0.34044256508052    1.86334424367280
H         3.02771085038640   -1.04976185989874    1.51323195347045
C         3.37984564250973    0.94934501132671    2.18489490055962
H         2.34534476221679    1.25071618874937    2.09453743303981
C         2.42989038265368    3.86085439157677    2.11563566381418
H         2.61966183844261    4.05435271892930    1.06614845220740
C         1.20680018248984    3.84415356098449    2.61961736396033
H         1.06290110143178    3.64642499364997    3.67638255665513
H         0.32061273994558    4.01447932444384    2.02808641808789

