108
CSD_code = YORSEE | q = 1 | S = 0 | Stoichiometry = C52H48ClFeN2P4(1+) | MND = 5
Fe        2.42814635485250    9.65869176333043    4.42418763330910
Cl        4.27075605449716    9.51759757413039    5.56150626994759
P         2.90920291639663   12.70952879380328    4.98739997899195
P         1.45715808016375    7.43650129399720    6.42233043813320
P         3.46996240628380   10.75461153076877    2.90928572122305
P         2.65862372368881    7.61490034811423    3.78550761860010
N         2.03480004950564   11.40349500893350    5.31941539302048
N         1.26853048345481    8.91992624138080    5.84450717356451
C         1.50449366196105   11.17908384979836    6.66498589479853
H         0.95968628806255   12.05201122633533    7.04192317197399
H         2.31493429332073   10.94612875618984    7.36633368097907
C         0.57122657309597    9.97171362887016    6.57484105116970
H         0.27113887522507    9.65218856161780    7.57942244313289
H        -0.32883777139337   10.26288261235731    6.01720235085862
C         3.70252418864453   13.47074724875590    6.42641533787635
C         4.62300775211368   12.70463212346431    7.13735522249157
H         4.86871536976863   11.70667425800969    6.79830728588318
C         5.20926430061707   13.22574163898321    8.27566412071736
H         5.92692583887131   12.63717608249246    8.82661677893401
C         4.87470786098208   14.49991313975899    8.70832183842467
H         5.33398374073406   14.90489097361832    9.59709704792189
C         3.94766149371906   15.25441413569887    8.00716520796536
H         3.68451512764253   16.24377361970559    8.34939138128757
C         3.35399043961299   14.74207532967503    6.86712620748032
H         2.62797702925379   15.32553383149409    6.31817295408124
C         1.90816731515942   13.99525104730608    4.18082839374102
C         2.51151562078579   15.07883917116933    3.55152656107784
H         3.58843301696856   15.17961843287007    3.56435190078017
C         1.72930398207214   16.03311225216756    2.92854646505292
H         2.19545363510660   16.87313750133182    2.43633382507836
C         0.34790990060355   15.91512838092901    2.94108368977823
H        -0.25883671567500   16.66343028861142    2.45472826967011
C        -0.25510505573651   14.84571998731767    3.58218917956137
H        -1.33137293056245   14.76309056799772    3.60011205932899
C         0.52442261273111   13.88464097674333    4.19963769494437
H         0.07326946383116   13.03769547729501    4.69828367056138
C         4.19870195821078   12.22937312422377    3.78024496053854
H         5.08368269848360   11.91870390568424    4.34327249351103
H         4.44739937796729   13.04445297299436    3.09521862402551
C         2.28423257169719   11.63442175452235    1.84905540087092
C         2.64692968793242   12.49924828748821    0.82233575148615
H         3.69049066117350   12.62356408452568    0.56650462399334
C         1.66654735879400   13.18566449102752    0.12946348285071
H         1.94370997892933   13.86162277339477   -0.66533688306674
C         0.32958186187603   13.00662658282786    0.44957135803969
H        -0.42941653944427   13.54497659993589   -0.09712137525746
C        -0.03638227096225   12.13937183434397    1.46623019856551
H        -1.07937135182208   12.00196472252721    1.70999187833959
C         0.94196433420684   11.45943300752628    2.16636907700623
H         0.69229119617080   10.79138786930986    2.98925474817119
C         4.78737647848592   10.20430504991320    1.79885222050387
C         4.42185954727818    9.66680463224581    0.56608368513809
H         3.37949204389566    9.67141742861499    0.27335182799613
C         5.38444818967338    9.14231139074278   -0.27378140331175
H         5.09949498477493    8.73827096055704   -1.23377974440977
C         6.71364825935716    9.13049874848157    0.11873802397380
H         7.46552036141189    8.72298964055850   -0.53957912819521
C         7.07656989132184    9.63207350594513    1.35763741101116
H         8.11046171823121    9.60835576663757    1.66805455407193
C         6.11811627308857   10.15975421336924    2.20352953875965
H         6.40246046263709   10.52419622122800    3.17988077798308
C         1.88707288151696    7.37050341700885    8.18294662850031
C         3.07672442734788    7.98096216824158    8.57239031929507
H         3.72109257459202    8.42464069512258    7.82494449953087
C         3.41811136166866    8.01926794475599    9.91103439895415
H         4.34332057898935    8.48415319571495   10.21586815710625
C         2.57242204392358    7.46338228614042   10.85930506593372
H         2.84015133754379    7.49494960586323   11.90439979172402
C         1.38028837542345    6.87301996073154   10.47142664802820
H         0.71961053392344    6.44900459030483   11.21238065015767
C         1.03024103841962    6.82714972516881    9.13330105076042
H         0.10002404931681    6.36937471765776    8.82607277629585
C         0.00334089340213    6.36654237066578    6.19126536471334
C         0.09768721466521    5.00440995030045    6.45957772296156
H         1.02119248035015    4.59730599648632    6.84984188323432
C        -0.99218245612621    4.18400869937084    6.23979118277906
H        -0.92072906240859    3.12672323804555    6.44565596469703
C        -2.17727528091857    4.71941631401067    5.75808479248433
H        -3.02643501752999    4.07567130715979    5.58740766371929
C        -2.27627339557432    6.07652940824904    5.50151092818534
H        -3.20244827599318    6.49165991902097    5.13398360347586
C        -1.18624630908369    6.90078181657473    5.71668511366579
H        -1.24588896537900    7.96080984606989    5.51509045096082
C         2.77296500619215    6.69072760866546    5.40493635124512
H         2.62700319219658    5.61289316815786    5.29466063615977
H         3.74291661504916    6.89313661603484    5.86766586020433
C         1.15604602657410    6.82787424693421    3.12648754581199
C         1.00639803310075    5.44970752046218    2.99908457626563
H         1.83319826129793    4.79146588537766    3.22977611339384
C        -0.19558779573553    4.92681166274979    2.56062834246090
H        -0.31358756354345    3.85773505986666    2.46729494507184
C        -1.24765847300788    5.76981448753055    2.23704393086508
H        -2.18273999395275    5.35388683060532    1.89428944450832
C        -1.09873729384466    7.14231553873367    2.34576959563906
H        -1.91575573746939    7.79820539291606    2.08380554919761
C         0.09994568396635    7.66683119107496    2.79307744124939
H         0.24048985833846    8.73704531715137    2.89548394132874
C         4.01729876620546    6.89234051819772    2.82689971756943
C         3.80520937199410    6.39976049498843    1.54232457201706
H         2.80606225236187    6.38661073417012    1.12901282816953
C         4.87011417202958    5.92136442026644    0.80176542586448
H         4.69961922745664    5.52569922086638   -0.18835971803894
C         6.15174863173210    5.95173581387653    1.32597526220997
H         6.98009115436600    5.57473448960278    0.74572318435974
C         6.37159808999623    6.47399595550020    2.59027441225243
H         7.37251078168863    6.51264577121529    2.99280272041170
C         5.31204058768632    6.95048610878584    3.33849047338222
H         5.48634440752401    7.38302154994170    4.31297617633486

