43
CSD_code = YORTIK | q = 0 | S = 0 | Stoichiometry = C16H17MoN3O6 | MND = 6
C        -0.18385311060838   -0.51538915936227    3.17700073968804
C         0.60425742003973    2.49677477876971    4.47673608947247
H         0.26377766639145    2.34472249715207    5.49794408599864
C         1.11516429573564    3.78015376914707    4.09642616526215
C         1.07565266317891    4.89519637985489    4.96417157490447
C         1.56348745892166    6.09794942069450    4.49155546722959
H         1.56016566198694    6.98225327074937    5.11435534701257
C         2.10463255598515    5.26445111152714    2.43570205538896
C         1.66708699887974    3.96719928745661    2.80799352582283
C         2.62836569406391    5.47357129047163    1.05253865186884
H         2.00092090279897    4.93005505398838    0.34182185125892
H         3.64114504394701    5.07805385329133    0.97292418813009
H         2.64307017368567    6.53357201293392    0.81983951355321
C         0.49763361399667    4.80064305832685    6.35134781376683
H         0.60568304894656    5.77535903803219    6.84439894291998
H        -0.57742776819679    4.56834291953393    6.28172339804795
C        -0.82658783691638   -1.80240840766349    3.46359531798972
C        -1.03489505076941   -2.70114298976156    2.41696774368869
H        -0.71603041619357   -2.42334900156432    1.42173062061825
C        -1.64420321366268   -3.91643126668761    2.66335379847110
H        -1.80776097565790   -4.61160493417643    1.85355065880423
C        -2.04687156744125   -4.24279264084577    3.94926954583884
H        -2.52349092134433   -5.19312436605303    4.13940317841351
C        -1.84092713798665   -3.35146695777722    4.99210009003390
H        -2.15728238999776   -3.61102516032302    5.99143277766817
C        -1.23470030773695   -2.13284897845341    4.75553896275232
H        -1.06581701387515   -1.42473080343766    5.55044439899431
C         4.09358528997342    1.15246167830757    2.77918917420558
H         4.16420836258367    1.97499603757726    2.05985239882339
H         5.00258345867713    0.54413663757459    2.72898343966861
H         3.99155731126992    1.55746458476478    3.78667970168334
N        -0.04648048449212    0.36767604773370    4.12703565370602
N         0.50880271373547    1.50663782993578    3.65038101557293
N         2.04457953654842    6.27959207611314    3.26672643597623
O         0.24079374806655   -0.26935743438465    1.97959447195142
O         1.78628709776224    2.96931692297743    1.96128951425635
O         1.17078251035904    3.79588277087209    7.08566965802738
H         0.87317504530366    3.82360218043232    8.00083150755053
O        -0.67172139195487    2.17876049876206    1.16809074832803
O         1.70797270435667    0.97423000929365    0.23046224649015
O         2.95251398142812    0.34561422894475    2.53167795596967
Mo        0.79287056137597    1.50265923652327    1.49530809710804
H         3.00239406683076    0.03904361874381    1.61096147709505

