52
CSD_code = YORTIJ | q = 0 | S = 0 | Stoichiometry = C15H29ClN6Ti | MND = 8
Ti       -0.03369974919510    4.10920559403808   14.45829651921253
Cl       -2.22242032292649    3.84386823806535   14.81719963459176
N         0.21584112846893    3.13369142283481   12.98061477270621
N         1.49591899735633    1.34962355338709   12.17791699580513
N        -0.75526918327735    1.56878650369723   11.54522511446160
N         0.60201174331842    3.00980996985835   15.72649399819159
N         2.07020971116200    1.89409185666802   17.14283441728357
N         0.08480991878895    0.84342849810421   16.49929235438219
C        -0.26644648785694    6.25670591911980   13.46732745372303
H        -0.95555808864260    6.52411724685317   12.67483417573466
C         1.06930296902003    5.84591525676886   13.29726034834217
H         1.59115995457734    5.75044687559219   12.35184481742257
C         1.65137917434452    5.71289384359620   14.57784515555078
H         2.69870563245222    5.51889692411878   14.77915564447364
C         0.67325193043607    6.06341133369124   15.53630254601246
H         0.83890021788971    6.17909711784259   16.60187250237693
C        -0.50578530576727    6.40011530005235   14.84682027156697
H        -1.41363205327031    6.78805726592511   15.29420327076255
C         0.30895291786705    2.07942932758955   12.29564113005224
C         2.59812167286979    1.80374338387668   12.99722100457623
H         2.20424710098843    2.12282074342135   13.96658469264754
H         3.12930865176471    2.65026712279901   12.53931804817215
H         3.29672077175422    0.97567789420514   13.12794012361653
C         1.91232810042146    0.87935691610969   10.87234773873392
H         1.05256743949622    0.77997831752041   10.21711001055468
H         2.40745500986822   -0.08987951324351   10.97067237467534
H         2.61898245333679    1.58209500599811   10.41311149827260
C        -1.94633921783621    2.39645535984165   11.53721815811278
H        -1.65506221729069    3.42856700280646   11.33737725141533
H        -2.48019798400992    2.36726879813804   12.49632304561975
H        -2.60421881996354    2.04288607583074   10.74343342500885
C        -1.05699011773143    0.15509629199248   11.66102082946445
H        -0.15964983963781   -0.40330097260660   11.91122708939150
H        -1.45820470026010   -0.21017671624789   10.71267021242841
H        -1.80531271280125   -0.01807055970060   12.44427697575690
C         0.88938900203400    1.98609409932988   16.40130004888692
C         2.90764765113432    3.07080944687070   17.15613456017933
H         2.27305664064652    3.95076350626235   17.25676981252268
H         3.49954717480461    3.16849468244026   16.23523368151608
H         3.58466783295224    3.00813053504633   18.00889675780499
C         2.81786562812726    0.65510422651344   17.14646194900535
H         2.16846145461668   -0.17295808147137   16.87932366783432
H         3.24058835563873    0.47933576318552   18.13903581418876
H         3.64216040304531    0.69929372421177   16.42356018737059
C        -0.25219703898593    0.36591438761640   17.82634138160810
H         0.55164894719632    0.58601519245998   18.52259997318533
H        -0.41528899981124   -0.71368369183847   17.79224436879457
H        -1.17055303166150    0.84355707414167   18.19096304395471
C        -1.03417248302965    0.77408936610561   15.58233161615129
H        -0.71752765865164    1.16695046671026   14.61205391573536
H        -1.89560130599132    1.36009776479182   15.92887333770674
H        -1.32918126786066   -0.27258566086345   15.48424228392697

