47
CSD_code = YORWUY | q = 0 | S = 0 | Stoichiometry = C22H22AsBrNi | MND = 5
Ni        1.99439464070389   10.43346243044648    0.49718312012164
As        2.80654849022012    8.36647968899339    1.04195901272113
Br        1.39882507895854   10.98646438016061    2.54835135771285
C         2.37212488755269   10.26398816596219   -1.45430972678676
H         3.22274983618069    9.78225945534638   -1.93016710340847
H         1.40340135471504    9.84861137574132   -1.73983591702750
C         2.46416784045105   11.60331414936206   -1.06339133545067
C         1.37934287259024   12.11352408983631   -0.33141155002551
H         0.36289917887492   11.78579193571944   -0.56710510793165
H         1.43889435506300   13.10841320997959    0.09722272113927
C         3.75667567035871   12.36242441709249   -1.17035353586959
H         4.61210102209897   11.68957223340318   -1.22797134836076
H         3.89201298097036   13.04182804885157   -0.32961961002758
H         3.73286994808932   12.95944263531477   -2.08357352348962
C         4.35401465893853    8.68400917416201    2.17289426527817
C         4.86922539957799    9.97370996505343    2.21341451866316
H         4.36753418782183   10.76448798865807    1.65048102004625
C         5.98647741035542   10.25921860783918    2.97687706849317
H         6.37855635926055   11.26512869058798    3.01010038658799
C         6.59341520477684    9.25023880256174    3.70597568392480
H         7.46315197802306    9.46903455402872    4.30775474260835
C         6.08225365335150    7.96242035570400    3.67352448004990
H         6.55407210450894    7.17970616498751    4.24994821406755
C         4.96493094746400    7.67713588730798    2.90908518200241
H         4.55606467473325    6.67273514058461    2.88693811667651
C         3.58399452551294    7.28640378481222   -0.38396151984612
C         4.95067109205306    7.21636413213285   -0.61976252828986
H         5.63590377368834    7.71874178298392    0.05573248168972
C         5.43689538811910    6.50858244753839   -1.70689740017200
H         6.50215498831243    6.45408420137097   -1.88017331209950
C         4.56141201673432    5.87420628504131   -2.57169081339725
H         4.94234531230959    5.32429223317028   -3.41953476654273
C         3.19442727828138    5.95041770285748   -2.35291041760882
H         2.50972549681187    5.46096958518530   -3.03066991737361
C         2.71065263163138    6.65874574087144   -1.26909508763963
H         1.64021174370643    6.72676436402888   -1.08763170121396
C         1.86290479531117    6.98573743459125    2.04619670223285
C         0.87686925861668    7.35125941883451    2.95471686674543
H         0.61573984349287    8.39626951263402    3.07961283961118
C         0.23073730185933    6.38382315257380    3.70589295534768
H        -0.53332605563656    6.67794383516029    4.41016877787908
C         0.56125859822462    5.04831447076863    3.55337170578914
H         0.05625388457412    4.29373060196878    4.13833869494999
C         1.54221647047273    4.67854573389224    2.64767549735038
H         1.80432661216541    3.63686578215904    2.52637625469375
C         2.19109442743949    5.64207997520690    1.89639816557907
H         2.95542588085776    5.34755627455638    1.18377539051469

