37
CSD_code = YORXEJ | q = 0 | S = 0 | Stoichiometry = C16H14I2N2NiS2 | MND = 4
Ni        1.82070066934218    5.35851447997753   10.06294090792897
S         3.93365885333168    7.76516284899635    9.48262616092938
S        -0.29218105743547    2.95196436851514   10.64296319639155
I         3.24451806976378    4.55793193210027   11.92832260154241
I         0.39647258999134    6.15896248892642    8.19855733518776
N         1.97790304014502    7.95191164402935   11.06585100683305
N         1.66992020684869    2.76192409747740    9.06792830606572
C         2.54478048743087    7.07160397249830   10.24695240739620
C         2.57823636802533    9.19116882939572   11.14784628605129
C         2.19207077796785   10.27805909833208   11.92218883432041
H         1.32647961950930   10.22261331049916   12.56283795168791
C         2.94888656525160   11.43062216303322   11.84809852591886
H         2.66679376479865   12.28640553269327   12.44156715796803
C         4.06790548793864   11.50973658924386   11.02326365863059
H         4.63859589410329   12.42444586115529   10.98756116907788
C         4.45924103941632   10.43440129569779   10.24946278956907
H         5.32404308724044   10.48523989262956    9.60765480697692
C         3.70324899429305    9.27721131668438   10.32164380168589
C         0.79640793398721    7.61248828598784   11.82487433946599
H         0.50726636041913    6.57293004139776   11.59274923798488
H        -0.02794944768447    8.27499662716335   11.55462574297590
H         1.00098278449970    7.68977856788841   12.89432314334068
C         1.09782375465994    3.64503900621733    9.88010778785021
C         1.07471802525415    1.51977136429773    8.99245418646045
C         1.46882778452203    0.42852954051031    8.22834483821861
H         2.33653893536330    0.48281514991024    7.59047196423454
C         0.71753993668438   -0.72717904869127    8.30952911872461
H         1.00619571697599   -1.58659454757036    7.72454282451261
C        -0.40420710575580   -0.80485743741169    9.13077018068690
H        -0.97032330591470   -1.72215811996730    9.17230662072978
C        -0.80386508327575    0.27506650084377    9.89384131051404
H        -1.67071447941314    0.22533112638048   10.53297443023130
C        -0.05296904107439    1.43514440503964    9.81515388485099
C         2.85298344975489    3.10056866272228    8.31095602904635
H         2.65085788250450    3.02187817093487    7.24117191941049
H         3.67668621851535    2.43847468159277    8.58391209450275
H         3.14142522201495    4.14039730086950    8.54232344209681

