135
CSD_code = YOSHEV | q = 0 | S = 0 | Stoichiometry = C53H77N2P2Sc | MND = 4
Sc        8.53871622988130   14.96559123195631    3.11434726000373
N         9.04082544149209   16.84363077729428    3.96419930253965
N         6.52440327499540   15.24824508574900    3.77806359732422
P         9.61917171073824   12.72825827475528    3.79441434409198
H        10.52502560203735   12.60331666998435    2.76154131858358
P         8.54004281339893   14.91348116352334    0.55732175341226
H         7.47714180808591   14.08519377364654    0.25958584656766
C         8.99831393352930   18.46058451703872    5.80672467143166
H         9.88054678053306   18.10139794004456    6.33463708542951
H         8.29682085237958   18.85675238071385    6.53517094808862
H         9.32020582963907   19.26362785600903    5.14598072796247
C         8.38911554435258   17.32528006097101    5.01704485890987
C         7.13862709401341   16.87029462182884    5.44340820142389
H         6.75115045122540   17.35589845944252    6.32850528390884
C         6.22904016680659   16.00368625544438    4.81867312942942
C         4.83853205063724   16.01177514084624    5.41105954273678
H         4.16810117564841   15.35796748541979    4.85883580522914
H         4.43582180297366   17.02330566273798    5.40017698231238
H         4.88256084171906   15.68539522027114    6.44947389884466
C        10.13564295410790   17.61622799702300    3.46921389989579
C         9.87356445264534   18.58534423788033    2.48278622243228
C        10.90533685023767   19.41835766470206    2.07605862367496
H        10.71645095936234   20.18666154633793    1.34360228332738
C        12.17927669725457   19.28463527812247    2.59584207665674
H        12.96690892782272   19.95189051074208    2.27795978330214
C        12.44693557757343   18.27547230487040    3.49871398849358
H        13.45332373064719   18.14515101655085    3.86575308593912
C        11.43994605752246   17.43193866909679    3.94787154668986
C        11.78509594784258   16.28242380740714    4.86558569056542
H        10.85507462791883   15.80439718589491    5.20271444867126
C        12.58163912377558   16.71323439255087    6.09762988769044
H        13.57734626523116   17.04968182327361    5.82081259330108
H        12.68710523237795   15.86785552308861    6.77466746499252
H        12.08457836692543   17.52525381486632    6.62586094891383
C        12.57609878388503   15.24527330811938    4.06416206180014
H        13.47629610516546   15.69039917385560    3.64557073556779
H        11.96039262975715   14.86102750071940    3.24567954307165
H        12.86292779109617   14.41339368658483    4.70167265118121
C         8.49634156590893   18.69714975613893    1.86301676669103
H         8.02693930771123   17.69890414776453    1.91882068897987
C         7.61813716954470   19.68996810410074    2.63127403430113
H         8.11267571970687   20.65772440489321    2.69988901107008
H         7.40844651055473   19.33320052577833    3.63664647932733
H         6.67021409280169   19.82475153697869    2.11441808223636
C         8.56117146505292   19.09204960737461    0.38771663139857
H         8.86137587669241   20.13034648337154    0.26553092323013
H         7.58177818695532   18.97411996384487   -0.06773108724810
H         9.25909674863343   18.45186145140963   -0.14380355665964
C         5.49056002092630   14.57244204035549    3.06432723892918
C         5.21034430321286   13.21906964652896    3.31814653937436
C         4.24397991878972   12.57777221946849    2.55548932313311
H         4.01635544972707   11.54097973151578    2.74955722205476
C         3.55581565233846   13.24525419792498    1.56212407738405
H         2.80887041077473   12.72959958735504    0.97712986061657
C         3.81617123938431   14.58188739289112    1.33529265573762
H         3.25905785790336   15.10606290615837    0.57388535752045
C         4.76953897501895   15.26551693487636    2.07615637215974
C         4.98595142932567   16.73920924340617    1.81503035435138
H         5.78559466334361   17.10232474831173    2.47116961027377
C         5.41248862295550   16.98040048945892    0.36636105711692
H         6.35874024457491   16.48006959177643    0.15944762515625
H         5.53351402170356   18.04676089142335    0.18887638308035
H         4.66645127997741   16.60564926434538   -0.32983581316836
C         3.71368689676211   17.53176789145952    2.13183638789254
H         2.91210633675595   17.26544407062787    1.44722200319251
H         3.90409299855254   18.59880918048109    2.03587129095166
H         3.37503869186785   17.33228351681511    3.14570787682946
C         5.89075539481881   12.46584594402480    4.43921318739360
H         6.73426826138906   13.07181583415067    4.80327614283777
C         6.44982720049178   11.12359152448952    3.96968138244890
H         5.65659893076230   10.44335865776627    3.66958123743094
H         7.01091763618226   10.65364198758273    4.77455794578669
H         7.12552930989623   11.27332038134930    3.13166466373004
C         4.90759230459932   12.24619981139998    5.59367582138220
H         4.54879830675303   13.19326779972978    5.98878478354367
H         5.39128477330433   11.69620290438488    6.39784618604443
H         4.04797526196626   11.67222897423324    5.25393399734451
C        10.82694230713801   12.64666285266169    5.14439182903964
C        10.58240810834625   13.29320685710778    6.37495926726725
C        11.56106545478384   13.28476116871284    7.35617088974439
H        11.38496075510235   13.78380314942549    8.29655047684217
C        12.76851681392622   12.64298668746503    7.15547372670457
H        13.53525403442355   12.67301222709707    7.91607265232421
C        12.96481165533360   11.92257671823506    5.99330112577712
H        13.88718131051375   11.37670534285460    5.86435350906183
C        11.99927517125148   11.87536406389618    4.99975579773955
C        12.22955351595382   10.97468462079686    3.80815196170138
H        11.26236834272380   10.81890245789030    3.31696050758389
C        12.74024588784476    9.59338637413923    4.22518455113091
H        12.69931801091602    8.91663689252547    3.37401897744678
H        12.12254567014408    9.18478843942338    5.02183923415025
H        13.77040268672396    9.63331386883003    4.57029849980612
C        13.19396741932945   11.61799617106895    2.81015030672029
H        12.79542712344340   12.55879401688998    2.43466245203718
H        13.35555264726726   10.95722198684994    1.96122295406540
H        14.15274897710950   11.81796829256152    3.28479046698372
C         9.23481997453543   13.91090758308770    6.66959987053173
H         8.82063041402696   14.32456415557514    5.72197456697289
C         8.30150664748733   12.79809515012048    7.15541962472045
H         8.24979393880096   12.00564291879674    6.41143115849874
H         7.30145286456904   13.18695055119051    7.33709335047792
H         8.68529101763311   12.37289782656443    8.08158117959056
C         9.25951650742411   15.04605593561927    7.69302906644651
H         9.42281385125016   14.66261369986712    8.69779187535824
H         8.30216605285319   15.56343183314333    7.68357483112211
H        10.04048055056395   15.76669921557360    7.46388855248163
C         9.90098669468570   13.76895408355248    0.16328372381357
C         9.74296485846749   12.37299498609931    0.04437695016063
C        10.82848038582183   11.60803765107179   -0.35700976788135
H        10.71512189264027   10.54174351829267   -0.47309223550043
C        12.05979102141376   12.17652584194432   -0.61269655154692
H        12.88919855434328   11.56018674209605   -0.92814240602979
C        12.22466595153703   13.54032569350459   -0.46211944119911
H        13.19052497276977   13.97807272058022   -0.66019388120139
C        11.16570462921831   14.34546081908294   -0.07971701290343
C        11.35198032501592   15.84433648940376    0.00873724579053
H        10.67279076265705   16.22747933273652    0.79183917240422
C        12.76886048909086   16.27783084501813    0.38063308132478
H        13.44665043983660   16.15880730832729   -0.46180970343988
H        13.14749712403263   15.69892337045296    1.21893003016418
H        12.76472812471291   17.32843653342303    0.66387261704086
C        10.95464730455559   16.46495385919974   -1.33278214766651
H        11.10733117485305   17.54250052854832   -1.31550304842227
H         9.90765709019860   16.25456354136587   -1.54418768095010
H        11.55988711110503   16.04031370408468   -2.13155744828481
C         8.42302340990881   11.69151950171640    0.32649190734614
H         7.88574669430819   12.30030379468635    1.07466984825832
C         8.56934130019840   10.29166147076860    0.92233643788205
H         8.97839960406995    9.58854967210986    0.20115585222863
H         7.59104082838844    9.92121348556858    1.22296216592908
H         9.21387929562842   10.31702587724329    1.79912057471262
C         7.59278190777285   11.62795433490558   -0.95883699161857
H         7.48316516853408   12.61860796527903   -1.39688147503790
H         6.60254829288694   11.22397931687047   -0.75569153495371
H         8.08939935709422   10.98995058875075   -1.68739238109071

