93
CSD_code = YOSJUM | q = 1 | S = 0 | Stoichiometry = C43H44NO2P2Pd(1+) | MND = 4
Pd        4.95218272053547   17.81340171961902    4.57027469507193
C         5.21243392389866   18.71199901931499    2.78958113053876
C         4.91093216612592   18.21355766687536    1.50941210978191
H         4.37126783641369   17.27672921415155    1.39797076271637
C         5.29180313439013   18.89778898747185    0.38868437850540
H         5.05714106271562   18.50948860313991   -0.59188631461922
C         5.98962791259187   20.11768460127643    0.48349195826644
C         6.36817373617570   20.83540260168006   -0.67043640448952
H         6.11354365022636   20.42606577735404   -1.63703141075151
C         7.03744892020923   22.02122722446992   -0.56948332410395
H         7.32419342743111   22.56716531920603   -1.45508113044538
C         7.35374120423019   22.53931724528259    0.69488246513180
H         7.87706206719281   23.48106390413987    0.76533982937446
C         7.00445833248686   21.86664462697331    1.83251531228332
H         7.25332006946263   22.29588195210359    2.79100042217063
C         6.31690939323702   20.63427147891657    1.76669628173451
C         5.92943003193900   19.88442017965652    2.90847934503348
C         6.21522981067927   20.34455275846781    4.32065507385477
H         7.11624043553873   20.97210011560944    4.38239683527050
C         4.99884024247117   21.14973199229790    4.78667621594834
H         4.78998115445782   21.92308476348073    4.05092845097306
H         5.15464442623013   21.62985010562651    5.74931114515105
H         4.12529389380543   20.48728776644957    4.83626364873961
C         7.65406279954515   18.44672356700980    4.74531048069133
H         8.53990151398012   19.04153842167373    5.00655708328274
H         7.66368829858960   18.28590471551517    3.66335304682816
H         7.72692584911490   17.48133225361889    5.26116630894147
C         6.54685544381733   19.48473139681318    6.57104197145211
H         6.87236861359465   18.60955016088811    7.13749604509333
H         5.58971866270325   19.81761337967835    6.97381323667102
H         7.29049824828006   20.27862386712550    6.71339012368801
C         3.59212971940384   17.58905249568463    7.71887379421170
C         2.94365029877981   18.66909877237062    7.11768032835868
H         3.14764551370312   18.88865053720933    6.06312110634056
C         2.05264998201470   19.44358293992078    7.83578625442824
H         1.55348846432731   20.27703257183083    7.36453811621631
C         1.80517693877085   19.14415710022005    9.16657638716850
H         1.11482460612179   19.74837688596504    9.73463216113449
C         2.43932128728205   18.06803259215106    9.76711604982190
H         2.23785584673104   17.83224089662058   10.80089776948425
C         3.32919747040509   17.28366747518928    9.05264034106952
H         3.80389324166636   16.43877660079720    9.52882970507459
C         6.07631280740135   15.98367595397845    7.57190229154117
C         6.48350049260333   16.49925014237919    8.79835190203838
H         5.92147231195085   17.29254959184485    9.26890872614216
C         7.60868802684941   15.98816938310920    9.42045672677455
H         7.90885069252682   16.37589586076812   10.38175170989517
C         8.34824146260599   14.98547606203543    8.81521009274737
H         9.22132426044103   14.58601499059527    9.30773683885188
C         7.97522389079534   14.50415670277515    7.56920036683358
H         8.56323311844857   13.73861123895157    7.08521908555123
C         6.85101459775651   15.00816306290402    6.94346654479237
H         6.57033399657885   14.64706427009053    5.95986429159246
C         3.65336403067605   15.14068931798538    6.21926837597730
H         4.32755310161432   14.42589835883156    5.72586167777440
C         3.02037120534277   14.44753127058037    7.42848492765636
H         2.41862971996558   15.14844686773479    8.00905515004879
H         2.37810357309886   13.63985767620450    7.06971189959773
C         4.06609155960965   13.82916964946255    8.33782030918204
C         5.59759546823477   12.06081273939424    8.52776767554202
H         6.30637296994976   12.75645313621911    8.98008162253165
H         6.10059520328024   11.38830006752852    7.83827517691507
H         5.10212427381023   11.49364292362998    9.31723024917224
C         2.59204521444418   15.58126858418559    5.20896024455991
H         1.91665833788729   16.32345591015985    5.65189466028387
H         1.98927541612378   14.73455256154602    4.86543087595808
C         2.09927271369811   16.93715509903783    2.72452566776681
C         1.46795369815745   16.19064217701668    1.73837300439844
H         1.78999342450013   15.18363781837678    1.52029565128902
C         0.43379390047950   16.75900084360033    1.01410609938188
H        -0.05766518398978   16.18366946646132    0.24432645534505
C         0.03316649061566   18.06062604456186    1.26761721895840
H        -0.77255732195082   18.49523533304610    0.69646591005527
C         0.67410494326780   18.81244668843573    2.24097740063356
H         0.37146786251136   19.83205435872999    2.42458815351048
C         1.70913211892711   18.25327945334259    2.96352012711320
H         2.25139721923389   18.83438686354122    3.70854078599972
C         4.34881487784867   14.95308049109515    3.06765881518194
C         3.75007686204506   13.74400649387964    2.72576687672892
H         2.68403463627607   13.60811336178356    2.84071845489178
C         4.52721825527020   12.70350362809399    2.24813355741178
H         4.06131351689302   11.76860013716111    1.97611222664252
C         5.89924292292378   12.85541388269989    2.12418358332671
H         6.49859359276528   12.03951489039702    1.75077475442465
C         6.50377501920499   14.04914993536116    2.48648632550240
H         7.57412609850526   14.16156653737403    2.40010458149177
C         5.73229199186361   15.09531205684173    2.95818860536595
H         6.19873915857959   16.04568690379100    3.24463283246714
N         6.42656715013247   19.13754129709725    5.15485832272500
O         4.34986765449027   14.23318262047011    9.43384221869913
O         4.63017817130978   12.77053904152623    7.76004792890753
P         4.69200782132605   16.65744357852429    6.61326781008962
P         3.45596432191059   16.36360042104480    3.77761342367644

