58
CSD_code = YOSKUN | q = 0 | S = 0 | Stoichiometry = C17H36IrNOP2 | MND = 4
Ir        7.97131551899021    4.34356317849248    8.07932569077788
P         8.92457441129934    4.54980066590937    6.02240442410342
P         7.12744458957354    4.73996008561040   10.15603556874257
O         6.88110702807650    1.55723479798721    7.73301267227031
N         8.71849725236267    6.17087344627045    8.32040813364474
C         7.31734379762892    2.63486839892726    7.87277581781881
C         9.32751520343362    6.94951256717061    7.26912509932151
C         9.94015069746325    6.07525007273739    6.17404852859525
C         8.40442466048658    7.04450842705551    9.42521279048207
C         7.99235538219375    6.27523141893596   10.68104596171771
C         7.83945359018022    4.88181466171765    4.54207662262267
C         7.14356816135456    3.59415208874659    4.11179414843282
C         6.80667693011128    5.92837072951434    4.94749503129916
C        10.13350931753475    3.27928885978382    5.38212882886765
C        11.05466838892351    2.87493044587053    6.53004676196270
C        10.92508989737708    3.71509333809418    4.15374526669786
C         5.31993012881110    5.16304014688621   10.33686132519075
C         4.95959606761827    6.14811474710395    9.22952465722244
C         4.47646391475566    3.89794804201023   10.21146635189948
C         7.42877431437673    3.55998784023475   11.57126054382638
C         8.88033169709798    3.09249931650658   11.50360089696146
C         7.08171505301558    4.11683622133448   12.94778528000745
H         6.68677636264758    3.11624078740831    4.97819394030936
H        10.12634077227114    7.59351604373315    7.69110702988039
H         8.59424836643427    7.65370839001234    6.82009619483475
H        10.93552101381127    5.75837215294212    6.49468545822947
H        10.02907845311336    6.61715901674710    5.22884059775903
H         7.60452466801934    7.76420249229923    9.14751766360088
H         9.28558342522044    7.67194751510295    9.67208459736457
H         7.38572582232232    6.89160099822166   11.34956628858921
H         8.89422160701425    5.96055182943416   11.21153413057977
H         8.45233934640647    5.27402060142884    3.72116225205721
H         7.84098394515289    2.89431327094299    3.65776377106209
H         6.36202850688607    3.81128920676693    3.38512707866861
H         7.28451109279116    6.86895095306686    5.21128303678834
H         6.25112016931604    5.57025062565678    5.81459923279104
H         6.10538435649940    6.11584110308357    4.13550910770903
H         9.51860514221186    2.40761082235198    5.12840752818184
H        10.45817143956063    2.66020694375957    7.41854511076310
H        11.75594567432452    3.67147726400702    6.77095549421838
H        11.62774499281753    1.98694190565400    6.26872268833988
H        10.26970359223223    3.92610759456660    3.31194427155835
H        11.60863848966387    2.92089048232430    3.85559298232469
H        11.51546475527461    4.60431062758839    4.36556036616718
H         5.15187935024285    5.63491371741297   11.31277445698689
H         5.50951153926528    7.07980105061345    9.33986291811338
H         3.89439028797531    6.37494805701181    9.24362413865214
H         5.21245769866759    5.71253009593305    8.26235421315108
H         4.59229416362267    3.25198639154385   11.07840030457565
H         4.77609107928729    3.34301096446900    9.32271580129082
H         3.42194545306228    4.15408442177688   10.11973776794336
H         6.79159649660844    2.69363432679430   11.35742507342066
H         9.12002193750549    2.79029298485353   10.48259995280895
H         9.04242345379619    2.24543909290264   12.16790469214178
H         9.56352109819547    3.88732087177590   11.79646161629334
H         6.02735559572520    4.37324945670900   13.01934295010427
H         7.67083030603612    5.00459893254432   13.16863447243196
H         7.29811354246507    3.37109951211059   13.71178241770400

