59
CSD_code = YOSKOH | q = 1 | S = 0 | Stoichiometry = C17H37IrNOP2(1+) | MND = 4
Ir        2.23574332043398    2.78170572007385    2.04865737605753
P         3.00295311090686    4.95313078049475    1.79885151503477
P         1.55209139359985    0.71759004533536    2.84623470066249
O         2.00766696425181    2.11545849980789   -0.86486057847001
N         2.40522111717815    3.24085211248564    4.13606180775015
C         2.09495846660844    2.37733117561293    0.25547790665246
C         2.27699729957725    4.67391918985135    4.44758594657352
C         3.19893992793110    5.50807232570656    3.56279174383071
C         1.53543365423560    2.43072883888160    5.00509784465000
C         1.67848645693442    0.94565952532759    4.68680769884987
C         1.91881932855008    6.25208317071835    1.03887338574258
C         1.88364313030367    6.06561623507484   -0.47503478401342
C         0.51546834038600    6.11576094239181    1.62500096735076
C         4.68346703687974    5.21372754376554    1.05448877995633
C         5.62799703453382    4.14025203927204    1.59269451666079
C         5.24317813012467    6.61792789802116    1.25366598845231
C        -0.19248151920073    0.16555304278212    2.52758237268046
C        -1.13236510548443    1.34767643901088    2.75600942720412
C        -0.63172688505907   -1.06282780334813    3.31669936999152
C         2.61974226800391   -0.76944253116751    2.54126057166098
C         4.07880103359647   -0.32313203426335    2.61846595216260
C         2.32668419172965   -1.35203528611267    1.16189977641573
H         3.37341830746300    2.97161863475669    4.34010120221929
H         2.50189786677731    4.86235969538956    5.50722075317413
H         1.23433427323120    4.95606739933404    4.27620646942814
H         0.50436822419986    2.75183360098135    4.83123291624963
H         1.76653745974925    2.61346026403931    6.06432722731564
H         4.23804913596778    5.34515615014745    3.85998866161595
H         2.97644357866988    6.57057062291033    3.67429986638997
H         0.92016260530439    0.36939901476131    5.21735665209389
H         2.65768454897899    0.58431180121291    5.01096970285835
H         4.54581383119010    5.02631167439228   -0.01680601134121
H         4.60048327208773    7.37073849681312    0.80435966510939
H         6.21964308639320    6.68897636078879    0.77910982277761
H         5.36837518435066    6.85153066019484    2.30877115955594
H         5.17299619453256    3.15337194551446    1.49017224696848
H         5.87322491108230    4.31234980575506    2.63914519103917
H         6.55942390448139    4.14514264518353    1.03209820399160
H         2.32296723404711    7.24075647292359    1.28494139853641
H         2.85068110549927    6.27024275423055   -0.92720967148092
H         1.15893182072622    6.74615187685481   -0.91620717961667
H         1.58993266413313    5.04651347424604   -0.72332302908021
H         0.49575857708783    6.37492390348381    2.68149697412605
H         0.15685476763851    5.09330088856907    1.49803614758617
H        -0.17193914577298    6.78201215234872    1.10894095661918
H        -0.20344886878860   -0.07020285168438    1.45643712612478
H        -0.75352133364532    2.23549588616315    2.24621661605623
H        -1.24121538365992    1.56190964308739    3.81749218393166
H        -2.12017432472755    1.12420486363397    2.36047160582345
H         0.05034918677352   -1.89783275616079    3.17760977160748
H        -1.61681001231803   -1.37501082596208    2.97646886859240
H        -0.70678290316194   -0.84925150242783    4.38075772272423
H         2.42128558179673   -1.51661966176289    3.31858408330165
H         1.33754503717463   -1.79919149516220    1.11291882936830
H         3.05392237688520   -2.12541839396761    0.92493297250872
H         2.39780764819377   -0.57479489069449    0.40193216537193
H         4.73971702837524   -1.16341830536542    2.41985153800549
H         4.26816176454931    0.44557559720010    1.86824764711260
H         4.33390209870733    0.07194652854757    3.60023725747695

