62
CSD_code = YOSLEY | q = 0 | S = 0 | Stoichiometry = C18H40IrNP2 | MND = 5
Ir        3.63145976217136    3.43567989021888    3.18015094113930
P         2.43623577607058    1.78051817459846    2.14813780334818
P         5.28896958104864    4.70010556003720    4.11053047602394
N         5.12873784565555    2.13044774180308    2.95562477901603
C         5.05795824944735    1.00223902991443    2.05512907848510
C         3.65524748593003    0.40164067898652    2.01133907851402
C         6.51519504497602    2.42645688268680    3.23706389276651
C         6.66507971951696    3.49214862993131    4.31747336943759
C         1.81947640962624    1.91064117765406    0.38449783346360
C         0.48921670973820    2.65141756030043    0.29653907888451
C         2.89113049610030    2.64044853170176   -0.41952388555953
C         1.00094045282970    0.94862554228148    3.01570897726957
C         1.38093046855634    0.74898848875648    4.48083560746900
C         0.53506583216575   -0.35915977182515    2.38411359430044
C         6.01300860106544    6.06688968642807    3.05294814960579
C         6.13765474373195    5.55267023207566    1.62143547635957
C         7.33105897366591    6.66452922519444    3.53372560669170
C         5.26886180797898    5.47861850290372    5.81548337664355
C         4.60975852722569    4.50054011448042    6.78475597953188
C         4.50869339663584    6.80157362203619    5.81609508950525
C         2.38504661224957    5.09682617741160    2.78732498558421
C         1.90793274497134    4.42591268217999    3.94928529192169
H         1.69901946224443    0.89663309668395   -0.01733915712768
H         5.76584938174476    0.21736462219532    2.38631903886955
H         5.38408116148629    1.28117110613446    1.03119675232071
H         3.52432107693078   -0.23008666350574    2.89204343978520
H         3.50670972237882   -0.20462187153886    1.11431532190638
H         7.04638132619459    2.74784710228107    2.31727217481450
H         7.03341942016050    1.50489017206285    3.57125893620150
H         7.65273097593278    3.95658178614566    4.29260089529696
H         6.52901574975139    3.02517825249289    5.29491898712153
H         0.55241551366855    3.60535727359392    0.81446878807740
H        -0.32024408852662    2.07483487373525    0.73754080053263
H         0.23666870587364    2.84474875160851   -0.74566813334418
H         3.05180239807796    3.63357470570494   -0.00335004492279
H         2.59312417952664    2.74212262176395   -1.46259835833939
H         3.83487298228535    2.10084554040947   -0.38285986207561
H         0.18025676026656    1.67483475334586    2.97693751242323
H         1.82734799952075    1.66109057881316    4.87641572640458
H         2.10377828693998   -0.05667241750499    4.58971161810196
H         0.50399240614479    0.49819773581443    5.07587900133212
H         0.18336695701989   -0.21120905870076    1.36605500753435
H        -0.28718457102789   -0.77474309193496    2.96622189755367
H         1.33847585464467   -1.09230741136348    2.36866191541677
H         5.24653947920249    6.85176089847001    3.06056420024513
H         5.22697407495522    5.02444858333713    1.33732059358337
H         6.97392649081519    4.86289253553316    1.53353312881010
H         6.29952864719263    6.37536734317198    0.92618788837723
H         7.25887710587115    7.04267655542747    4.55047461454258
H         7.61173064785533    7.49388611640401    2.88484609187928
H         8.13241985884360    5.92984256199158    3.49398094285278
H         6.30664355214620    5.64798243841490    6.13037814998804
H         5.16144158124936    3.56545875511254    6.84491233130456
H         3.59946432591174    4.27210260926935    6.45272704722855
H         4.56003308915226    4.92950527371308    7.78498473315616
H         5.03011430523415    7.56654680727956    5.24624311731276
H         4.38968565613362    7.16553068702712    6.83628122514990
H         3.51915740579787    6.66575748327277    5.38564396624693
H         2.84248335293362    6.07590313609711    2.91185788431257
H         1.78865021987714    5.04437162802394    1.88025864745463
H         0.96732546354536    3.88630482691170    3.87438810040096
H         2.01624384068593    4.92087094255256    4.91054049886549

