48
CSD_code = YOSSOO | q = 0 | S = 0 | Stoichiometry = C18H28IrP | MND = 6
Ir       -0.86072411102232   10.61229406009601   13.09518596498651
P        -2.85673903185965    9.91558237010712   13.81807077776823
C         1.11102886115746    9.88092682077873   12.54323651164350
C         1.21984059533397   11.75527266011548   13.90127111738376
C         1.00032293285331   10.62117408919480   14.74559669794128
C        -3.41853510530220    8.12483863837283   13.73077587910743
C        -3.32473032456949   10.36611099982290   15.58216393277973
C        -4.08031757419626   10.96263110662915   12.82273894563982
C         1.40080473313456   13.01337558228366   14.46069717004814
C        -4.77396667145882   10.11757110447259   15.98772629816788
C        -2.91962762382999   11.81343229979771   15.84635755490632
C         1.39389823923949   13.13662361225132   15.84077414133303
C        -2.80332347539618    7.36171191571871   14.90289977999864
C         1.15876653176168   11.29303731785012   12.53369493778304
C         0.98453916430441   10.77023969059877   16.12603272326164
C         0.81172980709080    9.46663891571996   13.87842103200641
C        -2.89221175611027    7.52311989488452   12.43071003132511
C         1.19068862012658   12.03170922057471   16.66059756027837
C        -3.22061848473254   12.13646585791442   12.33287342362217
C        -4.71924072655719   10.25743873519448   11.63304632796318
H         1.30800112327623    9.22976650019654   11.70482306560406
H        -4.51058067831201    8.05500801839970   13.76439517754398
H        -2.66813753547215    9.73436062203260   16.19079237940240
H        -4.87691384928676   11.33624465795391   13.47211549591260
H         1.55239350928422   13.88053641444464   13.83126702245669
H        -4.89294393878890   10.31377643537606   17.05260797063022
H        -5.45293835301809   10.77781855406903   15.45310014572494
H        -5.07590528502961    9.09127195772710   15.79726519620163
H        -2.93205624081830   12.02368831919919   16.91417691943821
H        -1.90905158647881   11.99040419828893   15.47766353885234
H        -3.60172532452688   12.50760770230698   15.35986419213481
H         1.55062513989815   14.10761501683711   16.28932654513558
H        -2.89933686243124    6.28895259520957   14.74235392574294
H        -1.74344763326685    7.60375884763356   14.97376161855901
H        -3.28151245244246    7.60160300577383   15.84822323752591
H         1.46460276427008   11.89332592139744   11.68669585307359
H         0.81481753821341    9.91841233495061   16.76988416124269
H         0.85210152022331    8.44447336141500   14.23011309592337
H        -3.04311672596474    6.44508856496574   12.42156051194925
H        -3.38468123000246    7.94082300890183   11.55956739275582
H        -1.82470237859282    7.72935880686624   12.35198993240753
H         1.19473457476660   12.16189537550193   17.73362249827558
H        -3.70389258000042   12.67381290604821   11.51760109524086
H        -3.01635632891891   12.84227089645863   13.13498814768569
H        -2.25037467383470   11.74396945449391   11.94694622619813
H        -5.40129808442294   10.93807020294490   11.12340158761797
H        -3.95641942628857    9.94910083301506   10.92185076706742
H        -5.28856960202205    9.38649059521023   11.94647149172541

