40
CSD_code = YOSXEL | q = 0 | S = 0 | Stoichiometry = C8H22Cl2O3RuS4 | MND = 6
C         4.81819571044026    5.21960194060128    1.42285696534756
H         5.78215217040024    5.40466291732579    0.96431434776582
H         4.89616491801266    4.64324686103006    2.33634373979146
H         4.31767601305967    6.15830495304126    1.62968224289543
C         4.97739472231450    2.93826694627361   -0.12164618448231
H         4.67376899336417    2.53982978013066   -1.09174826084943
H         5.98368611412228    3.34637468444595   -0.17703100602026
C         4.82010797016818    1.89617289736314    0.96038584547866
H         4.97656776486260    2.31706526162060    1.95493287381346
H         5.49012543114270    1.05060413138874    0.80173590741046
C         2.91578518970030    0.65899129828962    2.60896442745786
H         3.58227984337606   -0.18176728913603    2.77378982211389
H         1.87685898001029    0.34967063556549    2.69420071832394
H         3.10630048811673    1.47489085970125    3.30135298667857
C         1.39383646314359    6.71458963047353    1.00650541274788
H         0.65958586329206    7.50756688128822    0.92614462863160
H         2.10939396564302    6.77901213466775    0.19193325898551
H         1.89359715802264    6.73232286425053    1.96882336749694
C        -0.54494160938515    5.26404220930627    2.30002471387600
H        -1.14120529717207    6.16134797529754    2.18574313066116
H         0.07687260931928    5.29331862725166    3.18810881558506
H        -1.17243384342401    4.37757698489253    2.31531505864836
C         1.29676187436251    4.17954552628022   -2.59427129183427
H         2.18403280615518    4.79756519166334   -2.50405640621786
H         0.40442909119473    4.75335884176711   -2.38064894254259
H         1.25984244870264    3.70490144097658   -3.56746640539127
C        -0.10915610919782    1.99168811274622   -1.74532110494526
H        -0.10840221503058    1.72825915240307   -2.79629373960994
H        -0.92010015424938    2.66489399595321   -1.49156396782062
H        -0.15295553382475    1.10400289496158   -1.12235553669975
O         3.71636906255692    5.15019495797845   -0.94709099795334
O        -0.29931106570290    5.19019335795327   -0.32137483323976
O         2.53647265476420    2.01435788673596   -1.81557048745819
S         3.78685268582895    4.29945394794960    0.23158047673975
S         3.10350031989628    1.24131024347619    0.90094468467109
S         0.54382638511976    5.11088995490291    0.85950190937977
S         1.43359539897504    2.86024004132856   -1.35712198964200
Cl       -0.05346909160044    2.13905994239549    1.44547845219627
Cl        2.42811256695316    3.87543445879587    3.04715310570852
Ru        1.87572925654587    3.30225686668297    0.83404426229094

