88
CSD_code = YOSXEJ | q = 0 | S = 0 | Stoichiometry = C37H45Cl3N2Pt | MND = 6
Pt        2.60287535957461    4.91755260004909    8.33700165884387
Cl        2.07419866129217    5.15145838149813    5.94822215787103
Cl        3.56699047189750    2.29866880190025    6.67351376883360
Cl        5.84458886305924    4.87026172754746    9.06846349464279
N         0.34585877989154    4.45399779174147    8.43036990451998
N         1.60182894417932    6.94516963681059    8.60996444917225
C         2.83631011056931    4.80186450957842   10.38648566267200
C         3.86591254331809    3.30329145759064    8.06921852291801
C         4.59707799789402    4.52466475724685    7.91109860598166
C        -0.48174175062964    5.61499859737479    8.74115339723527
C        -0.06273542762356    3.19622362992548    9.07501281498219
C        -1.35202250325349    2.64644953486563    8.51260563841783
C        -2.52865698589144    2.65104203514088    9.26882930695911
C        -3.71774959786627    2.25321490347024    8.68020358128245
C        -3.77086766136982    1.82982337272594    7.36065811130678
C        -2.58690434238111    1.76054861648221    6.64839745146225
C        -1.37613986840468    2.15483881391083    7.20252619991538
C        -2.54122401925871    3.04496048929905   10.71870258186858
C        -5.08055946542623    1.45553645180012    6.73757259805326
C        -0.13705052914381    2.01690127553831    6.36769082884288
C        -1.88694721455663    5.56715589183548    8.17949450496155
C        -2.97036937848247    5.92223701986633    8.97052792338952
C        -4.25488942209508    5.89285382552454    8.45946290679099
C        -4.46964936412576    5.51538749828780    7.14633041402606
C        -3.39173735671508    5.19239044714853    6.34068830074127
C        -2.10803643999336    5.22888915757508    6.85058099149095
C         0.20620824337420    6.88054966971939    8.16940917263034
C         2.32426709740345    8.05227164440388    7.96206324678664
C         3.77135630674187    8.07477014620400    8.38651361141970
C         4.79079375587506    7.88283571789237    7.44348538944386
C         6.11273829333921    7.88613440606089    7.86308042720458
C         6.46079853237849    8.08360310442066    9.19006361050663
C         5.44673612805869    8.32877430425977   10.09934195940671
C         4.11233207498067    8.34144523341387    9.71714870048220
C         4.50673528537568    7.72295041776655    5.97898870270148
C         7.89205400203273    8.02167325984070    9.62289307279960
C         3.09157711546396    8.68028760869002   10.77032667898301
C        -0.59660741651760    8.09935943424368    8.56106730885531
C        -0.65653988011119    8.51818879245380    9.88533772887326
C        -1.40933915320409    9.62255817033220   10.24123890856752
C        -2.11985870571977   10.31765381051568    9.27783336074394
C        -2.07262392667760    9.90317946051486    7.95804321028681
C        -1.31378100004746    8.80247789845981    7.60263586012866
H         0.32034365990372    4.31107785967372    7.41720985905532
H         1.61882694967048    7.11617677538410    9.61493130668551
H         3.09699678986568    3.80105256040407   10.72775095131148
H         3.62181822278034    5.48112949553471   10.71617470017928
H         1.90199974925219    5.08371512208969   10.87739535226263
H         4.07981817737351    2.67866704979548    8.93588546723095
H         4.89620278158942    4.84979869415729    6.91547602608764
H        -0.53383682911486    5.70454056496894    9.83522910619426
H        -0.14357853332610    3.37623801485924   10.14697451072537
H         0.74813686541843    2.47775642879964    8.91862467049426
H        -4.62872986509334    2.27521641964946    9.26163837323355
H        -2.60128650372789    1.39376657016325    5.63159533226441
H        -1.90782883124685    2.37646840691513   11.30205770473020
H        -2.18903719774848    4.06395535213661   10.86189023547141
H        -3.55265363883230    2.98150381152851   11.11210416212976
H        -4.93180523114129    0.97672448094028    5.77311427748031
H        -5.63560691653174    0.77838713630962    7.38447104339089
H        -5.68789570072835    2.34868809753058    6.58978916893039
H         0.70746810216654    1.65902652486213    6.95284999117041
H        -0.31189718956103    1.30941219709899    5.56023853916297
H         0.15989092206319    2.95859519375910    5.90512078686090
H        -2.81076123627342    6.23172797375241    9.99405945294357
H        -5.08865822246713    6.16500909339213    9.08952535356713
H        -5.47306251507116    5.48441955395956    6.74839172229193
H        -3.54952764886417    4.91360063345038    5.30973279757409
H        -1.27781750187476    4.99510817958687    6.20050590842777
H         0.22124495000981    6.78938932895198    7.07690352036276
H         1.84016837638171    9.01170280687835    8.20389280936100
H         2.24679375141461    7.90232387260011    6.88619713476713
H         6.89601484601581    7.72742519412421    7.13529798265055
H         5.69768064529042    8.52004930847766   11.13347409878688
H         3.83106966213181    6.89234310257371    5.78666915905480
H         4.04861086731482    8.62724122340939    5.57779977905497
H         5.43033419981595    7.54226626341044    5.43444624122182
H         8.04559924286134    8.57244012342822   10.54778347366137
H         8.17242348836271    6.98187499127251    9.79374797076459
H         8.54818534025559    8.42546504610807    8.85508367712286
H         2.23215470015344    9.20242369016950   10.35401026258144
H         2.75030718933671    7.78351505752048   11.28961038630638
H         3.54493022182264    9.32791296095734   11.51857571048642
H        -0.11845502092933    7.97953320228860   10.65419865196690
H        -1.44366629804141    9.93860816033001   11.27359208560029
H        -2.70918421094628   11.17821447727770    9.55638405682128
H        -2.62677873550823   10.43926712154028    7.20238314778767
H        -1.27925903141092    8.48044757410086    6.57226632478263

