71
CSD_code = YOSYAI | q = 0 | S = 0 | Stoichiometry = C30H34Cl2P2RuS2 | MND = 6
C        10.76074219706717    7.71894176758442    7.06736100539556
H        10.83306753891576    6.85726550270680    7.72571656065186
H        11.74953119802758    8.08739833167592    6.80787395172987
H        10.17605722890102    7.46004808440649    6.18601236679595
C         9.84388177865881   10.31574251266036    6.68882610460213
H        10.84073617189953   10.75965349570054    6.64990045022659
H         9.60902732094504    9.80885020793576    5.75014551107890
C         8.77694416756636   11.33695473759691    7.04227517536640
H         8.71479914786063   12.11481899767888    6.27597220352268
H         9.00778866957565   11.80382652551277    8.00591304354573
C         6.99569513261684   10.97007768298565    4.43831751413088
H         8.05400892527382   11.18452325861639    4.43487936848688
C         6.29891255364666   11.00325183535207    3.24335181765991
H         6.81740545236988   11.26114252690224    2.33121501585396
C         4.95084580642599   10.69289245034119    3.20842276088455
H         4.41508450388649   10.71311744837237    2.27069278022435
C         4.29528062571622   10.34000946372812    4.37669686790153
H         3.24629055414864   10.08221578409172    4.35351144956639
C         4.98582271154779   10.30708332301870    5.57231946039803
H         4.48263704700081   10.01421234851277    6.48476611535202
C         6.33979057523526   10.63042978341068    5.61465045583508
C         6.38818951786016   13.05057858317458    8.12563012524322
H         7.21593351134162   13.45184037133304    7.56032199848664
C         5.55511905575571   13.90955603926405    8.81935257698284
H         5.74559151019542   14.97284302119188    8.79853896475403
C         4.47660873443233   13.41536031344592    9.53300422195206
H         3.82844011456713   14.09228672515879   10.06958835965855
C         4.23016610434877   12.05310873798128    9.55606313412963
H         3.38651510297791   11.66530549018141   10.10837561077549
C         5.06994287480206   11.19288639029011    8.87550078134931
H         4.90388615691238   10.12155548263252    8.89533381572361
C         6.15408882526952   11.68178384383952    8.15692751813530
C         5.31992667801107    6.12467367451553    6.79850791658830
H         5.37618294819201    6.49484506712652    5.77812084345331
H         4.40344992033715    5.56134496379510    6.95263855866080
H         6.20375473408776    5.53291263612962    7.03103600907137
C         5.20646692384184    6.74360761779929    9.50863267167441
H         4.19141193640178    6.35744378580249    9.62075079418978
H         5.93008889985053    5.92559051296333    9.48184433051265
C         5.55579779395739    7.73884133300560   10.60101170238177
H         5.58552375053607    7.23001020198684   11.56803146274013
H         4.80056152120526    8.53084832992094   10.62663206643188
C         6.11807708546992   10.62197184273143   11.86807751684042
H         5.28558470508602    9.99071460140696   12.14134784218800
C         6.18549127449584   11.90775806268342   12.37679645500826
H         5.40585730505519   12.26285974058217   13.03484081328902
C         7.23976882278377   12.73985191941932   12.04535039692749
H         7.27951205120786   13.74467511601382   12.43884410197452
C         8.24756122776199   12.27889359531084   11.21324071128638
H         9.08030505168313   12.92100661082689   10.96552559646910
C         8.18143862270845   10.99747669410708   10.70509110857911
H         8.96225216960606   10.61014187863413   10.05931338266087
C         7.11040692251474   10.16375725979818   11.01380937418760
C         7.92554900495318    7.69721816233704   12.79983003602186
H         6.94911450834796    8.05062553516879   13.10251671266136
C         8.78948659590780    7.18182654327796   13.74666654527831
H         8.47682478142108    7.11530648679426   14.77893722649346
C        10.05542935906644    6.75582428146103   13.37653136904540
H        10.72593255625248    6.34849598854895   14.11905948174408
C        10.46085308134157    6.86290119304622   12.05783618826444
H        11.45084539238174    6.54295974230299   11.76782523619233
C         9.59752763197281    7.37813128746758   11.10747771804162
H         9.90861400309141    7.45996876642357   10.07618154064762
C         8.31733827153718    7.77628624014789   11.46591165594624
P         7.15231090436185   10.46263186892783    7.23989935320658
P         7.20418361727218    8.52196722238541   10.22226942694033
S         9.88459547222120    9.01455269129046    7.98148411812145
S         5.29159495992900    7.57708905736139    7.87540988941310
Cl        7.80794216906973    7.93525032722920    5.61864810153082
Cl        8.19600366014579    6.08923543764607    8.49601464485666
Ru        7.56750287001558    8.35484265660608    7.98300001396705

