73
CSD_code = YOSYEM | q = 0 | S = 0 | Stoichiometry = C30H34Cl2O2P2RuS2 | MND = 6
C        11.01804354033121    7.91016840437731    6.11718809723890
H        11.17373306731011    7.01960233019199    5.51604923299234
H        10.50580868049090    7.65309713879774    7.03863273351771
H        11.95443516283833    8.42651891239491    6.29188666556521
C         9.92339577353873   10.46213640790424    6.31822085504362
H         9.64053073370819   10.09397694004850    7.30396429038356
H        10.92835376737300   10.88060865786889    6.31889518617543
C         8.89147218361585   11.41030719714662    5.73817237743472
H         9.18323675468648   11.66460803265523    4.71212580613222
H         8.79776522079004   12.32968204135092    6.32191656148217
C         6.51418473779923   10.75338943675652    7.27691892624168
C         7.12701622228860   11.41634573885337    8.33359659139361
H         8.11506632658892   11.83942645737875    8.23345520105005
C         6.47937298466174   11.52424050361295    9.55229080210037
H         6.96725747783551   12.03515032750423   10.37003276781766
C         5.22238875704015   10.97483265050045    9.73004889256473
H         4.72561067062251   11.05799136693186   10.68553910125141
C         4.61218184839793   10.30453006584865    8.68246416065010
H         3.63747166517047    9.85935095126719    8.81795524113661
C         5.25277199375737   10.19182825852671    7.46386174638462
H         4.78811299530340    9.64126611745527    6.65871834570863
C         6.23378670637555   11.68779206577305    4.66940309968448
C         5.00317723995230   11.21450135049337    4.22190545761040
H         4.73366312686740   10.18361495386520    4.40649974509179
C         4.13217355062583   12.05291210242706    3.55195517582860
H         3.17529538523554   11.67872968669932    3.21837259874454
C         4.48632853240291   13.36920883164066    3.30815400217037
H         3.80816715002697   14.02690120568058    2.78459930958506
C         5.71507418249528   13.84006193290967    3.73664948105291
H         5.99787478993042   14.86477893823302    3.54399557857859
C         6.58556198155349   13.00881873238814    4.41910667841027
H         7.53471427208171   13.40071974101940    4.74929266875438
C         5.53058785662409    5.91011225463858    5.96577629907986
H         5.54859166558728    6.24160047527407    6.99999281799182
H         6.36190435943435    5.24135692386690    5.77116917095196
H         4.57369784632678    5.46602331697750    5.71844348586712
C         5.65866881209141    6.63074350875500    3.25783599044337
H         6.43937008297869    5.87390616950823    3.19141157129826
H         4.66781856151455    6.19383872890406    3.14718148662793
C         5.89414474591530    7.78709720340152    2.30421101307817
H         5.10274462989690    8.52611018634506    2.46918204560166
H         5.88626459208426    7.46091857658580    1.26074666910308
C         7.41066468726547   10.25517475726635    1.98079088659118
C         8.58192836495140   11.00532374316286    2.07822863937579
H         9.44828328559235   10.55804805320697    2.55036248555208
C         8.63588226154966   12.28626054563429    1.56434202699563
H         9.54682830138676   12.86169956784248    1.64287384096070
C         7.52300028782050   12.82908071858675    0.94185969743032
H         7.56112509256650   13.83041907969971    0.53919110737973
C         6.36365386402842   12.08272715992789    0.83038297383509
H         5.49788145928601   12.50056534157475    0.33777564753669
C         6.30207935105858   10.79968668442518    1.34691224859306
H         5.38710141270691   10.23619028886205    1.24669438993699
C         8.64449789502905    7.85137335305893    1.48656190047160
C         8.31082348497603    7.95971202780971    0.13703317600018
H         7.40139370360303    8.46831495657117   -0.15572962140517
C         9.14826607185507    7.43700767428780   -0.82821782976976
H         8.88350993037220    7.52042973312920   -1.87251533436128
C        10.33006068310605    6.81303994111663   -0.45809234921437
H        10.98296822828480    6.40453160756505   -1.21553557367401
C        10.67482212713375    6.72442950227118    0.87872133354004
H        11.59990824260476    6.24902194628481    1.16856059107773
C         9.83800528069610    7.24548228990878    1.85099792511768
H        10.10874217407512    7.18106836271019    2.89259436405219
O        10.65444527001742    9.44521735060489    4.00634035166166
O         4.52508771219523    8.15627109110049    5.05790649286177
P         7.26503640609377   10.52856168296041    5.62748152318613
P         7.51995345876666    8.59326531908368    2.71681821916102
S         9.92291256789878    9.01645459834554    5.18842978631473
S         5.75257644812597    7.38038677721991    4.93191865734306
Cl        7.89515427783375    7.99903295023636    7.32888127979270
Cl        8.54310177395882    6.15841133082511    4.65393341708304
Ru        7.77948526188701    8.37640674136772    4.98577981923461

