87
CSD_code = YOSYIP | q = 0 | S = 0 | Stoichiometry = C40H32N6NiO8 | MND = 6
C        12.25876370783308    2.57471636178383    5.82458446145415
C        11.81251413550891    3.93116623543883    4.04217037769259
C        12.99707162296900    1.71006682919636    5.04372954667703
C        12.53529666218889    3.12039143717210    3.19209099135529
C        13.15417192147672    1.96383115100405    3.67763373001104
C        13.90545370834860    1.11826282051812    2.77296769846716
C        14.37090831271710   -0.10735078005481    3.05392658475464
C        15.10850090874510   -0.96290101230951    2.14245326724152
C        15.32513843632817   -2.30188634792881    2.48374975361703
C        15.63356940615688   -0.52823833385005    0.92180510098162
C        16.02226883315528   -3.11744461349541    1.61010740145223
C        16.31842571821857   -1.43150404029389    0.12835645689266
C         8.08637923284990    3.47204086652545    5.82708293296569
C         6.83541589843869    2.98607727517813    5.46692826650584
C         6.19748372465530    3.57910596756159    4.38489616661179
C         6.84005156828719    4.60969285299760    3.72362049246216
C         8.09536826056429    5.03682848782825    4.15649048883829
C         8.81011531558729    6.15343530958500    3.46449676617082
C         6.20144847390552    1.89925471634209    6.28077758182074
C         8.78044238618961    2.81830348793617    7.01460050002317
N        11.66988624805304    3.67011821909082    5.34193237720499
N        16.51071799097965   -2.69859401449579    0.45509148241494
N         8.69787349482320    4.46810104557098    5.19523678999349
O         9.89750242724385    3.29469935997700    7.36705186932624
O         8.20511910646866    1.87365653246714    7.54102810902728
O         5.39914976821228    2.10293133892913    7.15349005751704
O         6.47682999926645    0.68453128162009    5.78853484966365
Ni       10.69532123508228    4.83202024144518    6.47674596632647
H        12.12118054920583    2.37357140444676    6.87740976302669
H        11.34549620275476    4.83182974882309    3.67083434625172
H        13.45444219618282    0.85010353493175    5.50522881284038
H        12.61760830933009    3.38374507555573    2.14862836725562
H        14.05875040195524    1.53814912929509    1.78812533770484
H        14.17591685046262   -0.54687246995739    4.02326693822339
H        14.94677623943380   -2.69594205614290    3.41520243231051
H        15.52516414691869    0.49497380440903    0.59997839266551
H        16.20325817165232   -4.15847203328115    1.84364216706149
H        16.73855756409429   -1.12749395876806   -0.82149707730271
H         6.10775818258593    0.00943634137404    6.37833130971096
H         5.22121976778660    3.24027411403757    4.07154623797215
H         6.37576037060768    5.09067272317567    2.87602292844782
H         8.17494446792188    7.03622493680697    3.41183963282382
H         9.05842212473372    5.86416308883941    2.44382498335288
H         9.72527598896789    6.39550451128025    4.00105216294499
C         9.13193456951184    7.08935536060739    7.12910548702127
C         9.57809890633842    5.73268405512345    8.91137641741086
C         8.39369480532056    7.95397647492171    7.91005975525905
C         8.85537962748079    6.54341928333740    9.76154649178438
C         8.23659762844295    7.70008265345991    9.27613124154967
C         7.48534756819379    8.54558226813074   10.18089123531228
C         7.02011095405849    9.77132550067656    9.90013876078410
C         6.28262578590381   10.62683193613872   10.81174628257268
C         6.06619160224373   11.96590980299602   10.47067475374683
C         5.75744887161962   10.19203571531469   12.03230285339694
C         5.36910440980497   12.78140623383996   11.34441309431938
C         5.07275165050625   11.09528250263574   12.82591406507726
C        13.30411202464874    6.19226419965247    7.12649436454641
C        14.55498533317341    6.67841985038560    7.48671177950831
C        15.19296957295621    6.08544551711109    8.56873722562961
C        14.55055651904372    5.05470264173278    9.22992276268484
C        13.29530737231319    4.62741021155578    8.79702018795513
C        12.58070486124771    3.51066921096224    9.48895134015155
C        15.18886575916673    7.76528026631054    6.67284144552452
C        12.60996806111503    6.84599382505748    5.93902564741923
N         9.72074379262897    5.99386780687109    7.61164183488977
N         4.88061121318330   12.36244620298369   12.49937189091933
N        12.69274522075895    5.19609114055354    7.75827945775711
O        11.49309441921949    6.36931834719514    5.58637134139939
O        13.18534036424047    7.79052663701478    5.41244355143785
O        15.99118724677462    7.56161572909646    5.80013389676488
O        14.91330609674538    8.98002015489062    7.16493673074140
H         9.26953969727250    7.29060006620600    6.07630061228754
H        10.04513940533975    4.83199695965673    9.28262929514569
H         7.93633503934328    8.81399530249876    7.44865199145872
H         8.77305585005232    6.27996639528466   10.80498288006998
H         7.33189308064233    8.12552159295159   11.16563450364213
H         7.21523985027559   10.21100168196877    8.93089445407884
H         6.44472457214252   12.36009826127935    9.53935049518883
H         5.86559381318555    9.16872937560361   12.35390979499738
H         5.18848553451793   13.82255679243431   11.11114751037151
H         4.65237221547597   10.79110810703236   13.77560382295187
H        15.28228767175652    9.65508764422745    6.57505230796059
H        16.16914849103735    6.42443857077032    8.88217307151347
H        15.01485465916680    4.57385009528676   10.07758771773990
H        13.21600945526338    2.62797620393883    9.54156996268736
H        12.33233022488233    3.79983406983400   10.50963563513992
H        11.66558616414249    3.26849478190630    8.95237524645819

