74
CSD_code = YOSZUD | q = 0 | S = 0 | Stoichiometry = C31H38CrNO2P | MND = 9
Cr      -13.64373784022552   -6.48488346618972   -9.26902990463278
P       -13.93090624388443   -4.10921248827534   -9.30806148754118
O       -11.44628055549236   -6.47831892289772   -7.27181005323496
O       -14.62393090802146   -7.00105012039133   -6.52065148276536
N       -16.42092410925749   -8.29956062049878   -9.85519254947196
C       -15.03967987836081   -6.58599434765159  -10.95974354582642
C       -15.15515866447890   -7.79743837316795  -10.22939370242882
C       -14.02034644588919   -8.60178697582270   -9.96492877842462
C       -12.75473518686203   -8.15735381639887  -10.40651851038436
H       -11.89346130939680   -8.79182093329917  -10.23412433557144
C       -12.65810330990792   -7.07270299012938  -11.30342711934728
H       -11.71900095076027   -6.86532609427029  -11.80177764249704
C       -13.76881541542549   -6.29339924517414  -11.54622221663956
H       -13.72605964398360   -5.52207326559078  -12.30564546336804
C       -14.11611538610216   -9.93091221377706   -9.31706732866316
C       -14.63920702045422  -10.01098205649910   -7.91653533357075
H       -14.63931215921256  -11.04261424443985   -7.57465317651656
H       -15.65043071708221   -9.61864597698494   -7.83866857533248
H       -14.00491099261571   -9.41916673150775   -7.25662028721404
C       -13.67720990125771  -11.00244005000432   -9.96801788695701
H       -13.71480465571652  -11.98375603103056   -9.52805058137689
H       -13.28331771667305  -10.94559821569851  -10.96976688906605
C       -16.17292906926775   -5.71331190038916  -11.29146354042797
C       -17.46428002205966   -6.34286203124976  -11.74528437189883
H       -18.10973918395679   -6.57518578405367  -10.89853907149094
H       -17.27907777293159   -7.26650184455740  -12.29082056543792
H       -18.00419826762538   -5.65766465060148  -12.39583580484384
C       -16.07757734272876   -4.37878498770490  -11.21987937137686
H       -16.95386786180267   -3.80344477327391  -11.49401208785683
C       -14.89454484794005   -3.55758407044777  -10.81726469287435
H       -15.21204291425808   -2.52429442773736  -10.66408958082842
H       -14.16087347919637   -3.54548285698258  -11.62814790525276
C       -12.34535594228154   -3.08304164418378   -9.58302007110809
C       -11.44779854353093   -3.95020420900990  -10.46886737484612
H       -11.90604043924234   -4.14237678366353  -11.43667536098915
H       -11.24608300744032   -4.89919911405193   -9.97378517328755
H       -10.50084279555407   -3.44234016657541  -10.64624350553587
C       -11.63511646523368   -2.90049925301362   -8.24286693009514
H       -11.63978001655261   -3.83240810120634   -7.68167553027809
H       -12.10402020512845   -2.12209984880962   -7.64867554431716
H       -10.59879233104385   -2.60968181119162   -8.41062999279945
C       -12.52850520488468   -1.72213391827782  -10.25956675890361
H       -12.82979935556243   -1.82256779064980  -11.29924999319900
H       -11.57405724765230   -1.19664259036515  -10.24660977471265
H       -13.25562292509813   -1.10064246504515   -9.74829297589652
C       -14.94143250712149   -3.29856418724424   -7.90809957746563
C       -14.30339236440846   -3.62065858731277   -6.55341393126564
H       -13.83039949392386   -4.59996696878079   -6.57125176614206
H       -15.06877974443559   -3.62888741462707   -5.77950831685229
H       -13.55881712659910   -2.88310342147984   -6.27224965465156
C       -15.17083678019863   -1.79012240503544   -8.00033226654888
H       -15.65289991592834   -1.49931235542058   -8.93044056014912
H       -14.24405951809555   -1.23432731600759   -7.88917365730980
H       -15.83012168667639   -1.49161244196613   -7.18569556405885
C       -16.29244508601067   -4.01346535906231   -7.98569662528899
H       -16.79553771485488   -3.82291493789660   -8.93065853970827
H       -16.94338288625558   -3.68087915446311   -7.17882733242842
H       -16.13276788114478   -5.08418755546833   -7.88062326902049
C       -17.23429158594087   -7.85078758279755   -8.84726724040135
H       -16.93609994731860   -7.00963643450309   -8.25247113622179
C       -18.34893926792448   -8.62640419592599   -8.75973348190216
H       -19.15259011217766   -8.50986921109694   -8.06012159275309
C       -18.24298886305938   -9.62445176734733   -9.76865599359808
C       -19.05336125296001  -10.68105235888452  -10.18225704672359
H       -19.99145834736192  -10.87639962251688   -9.68407783679952
C       -18.63255863325650  -11.46076891112260  -11.23540497179813
H       -19.24518208692962  -12.28521031291289  -11.57018140495762
C       -17.42539373029930  -11.20697657080903  -11.89288546359630
H       -17.13443760252397  -11.83662825293281  -12.72093960813099
C       -16.60426104380080  -10.17033543075314  -11.50725366054031
H       -15.67423914619283   -9.97094595882748  -12.02003489563887
C       -17.01598686885142   -9.39097887849262  -10.43402169147079
C       -12.27412761435553   -6.40575070321584   -8.08916244161289
C       -14.29261693938910   -6.71690950036962   -7.60265764387182

