32
CSD_code = YOTCUG | q = 0 | S = 0 | Stoichiometry = C15H11Br2N3Zn | MND = 5
Br        6.16835263747474    1.45805994469510    0.21839659119826
Zn        6.85172971502309    2.30347722306986    2.33116251345382
N         6.85173615923162    4.44535539284226    2.33118389653315
N         8.88427531508424    2.92847766115836    1.67593371967543
C         9.85155240747147    2.08552890822767    1.36760822951314
H         9.60929570335609    1.03395760895810    1.44344266278876
C        11.11124598894912    2.50516291930684    0.96801449745903
H        11.87435564719708    1.78392142826030    0.72539634292682
C        11.35351529318317    3.86645727395013    0.89233568086281
H        12.31946774536083    4.23915317355472    0.58607725929538
C        10.33768674661822    4.75059719122492    1.21586198417641
H        10.51316866669694    5.81232597199103    1.16138362409565
C         9.10087031947944    4.24386135435451    1.60854521869772
C         7.95573834375707    5.09351019193143    1.97526849603807
C         7.99046228533521    6.48802024947370    1.96249562383305
H         8.87893103214452    7.02336602337725    1.67351609319897
C         6.85173682877844    7.18266772936280    2.33118579558181
H         6.85173747825743    8.26234321890187    2.33118719663760
Br        7.53510489113745    1.45801331555676    4.44392243460621
N         4.81919480148236    2.92847784473299    2.98642759898999
C         3.85191571498209    2.08552913968526    3.29474698541883
H         4.09417244224290    1.03395803140996    3.21891045733898
C         2.59222083128236    2.50516319956584    3.69433642534225
H         1.82910972888667    1.78392162167067    3.93694986756565
C         2.34995243997733    3.86645752458045    3.77001784083033
H         1.38399914519616    4.23915368499246    4.07627322034685
C         3.36578293926059    4.75059742464200    3.44649743224364
H         3.19030183535121    5.81232622968600    3.50097806962432
C         4.60260041412838    4.24386154230646    3.05381762428582
C         5.74773384401590    5.09351032095620    2.68709857032585
C         5.71301060568186    6.48802041342433    2.69987387639481
H         4.82454205297619    7.02336624214933    2.98885417072040

