68
CSD_code = YOTCAL | q = 0 | S = 0 | Stoichiometry = C26H39OPTi | MND = 9
Ti        0.25692726418380    0.72799394447535    2.37262408051412
P         1.08816586601188    0.97145651020692    4.68448058508226
O         1.49210360773498   -0.46593256652629    2.32115647944067
C         1.29562130183867    2.31080046789070    2.08746803430313
C         0.90273960376988    3.75888600761601    1.90388908845253
C         2.11624779643526    4.69508788897692    2.06631182009980
C        -0.17839628696464    4.18773857642477    2.91839399030762
C         0.38427547265221    3.95479546057625    0.46339497054700
C         2.72793675814957    0.25080299761367    4.20206564833353
C         2.56803467795493   -0.82350961951742    3.09495926050570
C         2.33243109564013   -2.29353123173074    3.64245109676277
C         3.00558558235504   -3.14491716131454    2.59739524513164
C         2.87072059938505   -4.50835503260034    2.41269669820562
C         3.58755368646023   -5.12513318775007    1.39995210050119
C         4.43108840021486   -4.38455183389396    0.58908295833685
C         4.56617547291958   -3.01807213644606    0.77645276284629
C         3.84349497672201   -2.39977851353080    1.78014887882245
C         3.86360877272455   -0.94499633710499    2.17816369539065
C         0.83777718236659   -2.60961725133876    3.71613549097558
C         2.96610991062246   -2.59443827424200    5.00599844058305
C         5.18587689104627   -0.67065335780956    2.90741058371114
C         3.78473961734921   -0.02626128049917    0.95621076693189
C         0.72761681928952    0.12740003551559    6.31660080760704
C         1.70160697844478    2.53771291389807    5.44375568643412
C        -1.27109427406112    0.60507800449786    0.69523600551463
C        -1.84376385168487    1.47277496059292    1.65545764285986
C        -2.07322978419369    0.73748094737233    2.82867297137629
C        -1.68818287887934   -0.59811019390218    2.58722725565265
C        -1.20988597628245   -0.68572557964460    1.27229042819395
H         2.37046497751249    2.21037089347210    1.88109141384495
H         2.58784490795440    4.56407880647338    3.03967660750663
H         2.86073796334463    4.49109772369362    1.29865011577706
H         1.81051698689041    5.73677552383844    1.97575465339531
H        -0.80057228588187    3.33448872841418    3.20034025725757
H         0.28540176192270    4.57812942758649    3.82239979040499
H        -0.81060233800835    4.97198003787276    2.50441801246301
H        -0.52298088084065    3.38199442084007    0.29527825142007
H         0.17698891664239    5.00729809190367    0.27015377216778
H         1.13687974695669    3.61476493883749   -0.24717560325091
H         3.29322841821240   -0.09200824339474    5.07018105061735
H         3.24740630521914    1.10131885708603    3.75194596706056
H         2.21594048880306   -5.09036840320568    3.04478819072359
H         3.48889710722523   -6.18955129789532    1.24302525602392
H         4.98849480228252   -4.87546703139465   -0.19554869022505
H         5.23168262841743   -2.45269329082707    0.14046999320781
H         0.42694680839959   -2.69885981151418    2.71268206852102
H         0.67327632890222   -3.54600187289427    4.24602673542420
H         0.31536891208740   -1.80769227792993    4.23706473358755
H         2.88940985637293   -3.66347791399208    5.19883441538873
H         4.02047473462461   -2.33345606603782    5.02841972357295
H         2.45107134931714   -2.06927312360895    5.80544910983285
H         6.00938999425593   -0.87460737422722    2.22543880310211
H         5.26065727632555    0.36612416102857    3.22528578947196
H         5.30767611636190   -1.31399267053084    3.77396244319652
H         4.52178556085363   -0.32632293462186    0.21558372640913
H         2.78784059897329   -0.07009672466447    0.50764899712068
H         3.99227534245238    1.00301938362210    1.24218690261691
H         1.61157485932343    0.11654428524223    6.95426799041849
H        -0.05760725039737    0.69743191455950    6.81442311873576
H         0.36812746989981   -0.88897073055750    6.17684887834354
H         2.46586887167564    2.32289712942402    6.19164682198338
H         2.11419476785674    3.16682747015350    4.65964251909448
H         0.87310930604181    3.06006888373471    5.92053520070695
H        -1.10542669042222    0.83555019762546   -0.35251800423044
H        -2.18943216014511    2.48140007853827    1.47120967920974
H        -2.58566954414712    1.09819472407721    3.71692836304455
H        -1.86439672693316   -1.42932884941864    3.25732303604243
H        -0.91463057055574   -1.59161221911094    0.75437643658511

