52
CSD_code = YOTKOJ | q = 0 | S = 0 | Stoichiometry = C24H19O8Re | MND = 6
Re        6.58269952556247    1.08342305384456   11.27104542041643
O         2.03027545528583    3.16887809712287    9.66209414739782
O         3.28257424005280    5.00688687540392    9.94945470591392
O         2.34734596490077    3.31150196845100   12.54330403169470
O         5.81376279747650    0.44741575295271   14.04116156132640
O         4.54798397310008   -0.93661518376927   10.08233938534541
O         8.29495400361078    1.34217070108815    8.67797189069947
O         8.35960249872650   -1.09296268661927   12.61904593064121
O         8.02360683496983    3.35749782975185   12.81604314435674
C         5.11539103137011    2.48364706390357   10.39613022032115
C         3.96227679862619    2.93035962182667   10.96776580812931
C         3.49370239017706    2.66771892008033   12.29476695450342
C         4.11893479822329    1.86300901130561   13.24129515742765
H         3.62781556870799    1.79045587992673   14.20280043417163
C         5.30504953155410    1.15131917875952   13.04351887605782
C         5.35367444198639   -0.23878463410934   10.49115172673960
C         7.67766441461340    1.22739057830635    9.63173607432188
C         7.72504966302027   -0.28872413838850   12.11496694866163
C         7.54669361748391    2.52521698470107   12.19568517133351
C         5.27677098055080    2.86235107689680    8.97576740296337
C         4.54361911577378    2.20155464755358    8.01522953631430
H         3.83589177833436    1.44042100834477    8.31405443892960
C         4.72314006786411    2.47919073060278    6.65459262244158
H         4.13757844226049    1.93465893175470    5.92772731768609
C         5.62630825560829    3.42222591041361    6.25191166718011
H         5.77045230122912    3.63585911320314    5.20248035725374
C         6.38032754292829    4.14126279227452    7.20236803241764
C         7.30365319803999    5.13710405258584    6.82115459574548
H         7.43896413186121    5.33921047998600    5.76780179048563
C         8.00823189735410    5.83670225405530    7.75969247058931
H         8.71418486963702    6.59688862910601    7.45784296625435
C         7.81336318271293    5.57998316581380    9.12493601339242
H         8.36696145345482    6.14943159641925    9.85719615608317
C         6.92555233555416    4.62198307434539    9.52668224250776
H         6.75283644703212    4.43813295330583   10.57746768077623
C         6.20021984794335    3.86831001830090    8.58224864454387
C         3.07531919484659    3.84164661025262   10.15372186590208
C         1.15318619710040    3.91024462001352    8.82585558163714
H         1.68846147592091    4.26101833694414    7.94084677616843
H         0.75726955622730    4.77396538843205    9.36362871407365
H         0.35215086300700    3.23134383545227    8.54488297238047
C         1.68913729455525    3.19816867055934   13.78568348114002
H         0.79510226823053    3.81310716960561   13.69559922592382
H         2.30728748209531    3.58019734653468   14.60323705440874
H         1.39721932746265    2.16436650023608   13.99178311508173
C         5.24923102203276    0.38859658726864   15.35547268915987
H         4.25041790379595   -0.06252244373646   15.31072215837915
H         5.17302282548484    1.39990269660706   15.77296677230216
C         6.17929242872735   -0.46548940813418   16.20089620718032
H         6.26594508800288   -1.45886374475877   15.76947935719247
H         5.79102065576422   -0.54776638528820   17.21219191310641
H         7.16822301884127   -0.01659108936137   16.23380059137842

