64
CSD_code = YOTKUP | q = 0 | S = 0 | Stoichiometry = C30H24NO8Re | MND = 6
Re        2.17575884729148    5.70002618359204    1.93864876509081
O         4.88648154071208    6.84290269058311    0.95209659284723
O         1.32806456831934    4.55818505607779   -0.82611846528202
O         0.41741157073575    8.26531600968820    1.73500159535198
O         0.16322394431345    4.02330403912138    3.60258830956969
O         1.12111602285710   11.36569363228937    6.53778237046552
O         4.12168242587860    2.59090346174185    5.04127972434662
O         7.14425659426054    6.09230780577975    6.05512169268721
O         5.99284773046641    6.20449568180079    4.12476700934270
N         3.25798120378194    6.46491871598490    5.08017394018966
H         3.75800045617438    6.02329814880085    5.85494377905940
C         3.48836131432767    4.02900187629557    2.58163518939417
C         3.83904176830346    4.53857236925234    3.81382167449696
C         3.18672332275290    5.80986007125100    3.93973283937688
C         4.60922903621456    3.83406972807412    4.85549616001995
C         5.62984069338678    4.36869520571386    5.56225792740017
H         6.08205283718972    3.81746357871177    6.37340006115171
C         3.84709974456322    6.47760075658415    1.25173515413200
C         1.61377297941150    5.01897904216805    0.18053961372579
C         1.07652024470487    7.33015031242754    1.80932332592321
C         0.82273821937689    4.67656953306633    2.93808472334089
C         3.91299186495561    2.72880288386892    2.11605900416322
C         2.95472240773147    1.85018940079663    1.64686980893423
H         1.92959709862766    2.18613733782485    1.56115393939506
C         3.27539675176399    0.52475808833370    1.34561027211966
H         2.49526944078976   -0.14398272023077    1.01254683857924
C         4.56070477875732    0.07641439810581    1.48440336863264
H         4.81183035630381   -0.95314937194062    1.27284799821035
C         5.58823954509765    0.95531741189214    1.88659791116033
C         6.92752349727896    0.52468564725534    1.99364386476548
H         7.15563418085112   -0.50921216173854    1.77579381497261
C         7.91898431869848    1.39571724830888    2.34919278243859
H         8.94141588617753    1.05692158147006    2.43176669381583
C         7.61733626399204    2.74494087749827    2.58201146616509
H         8.41259982866838    3.43394420775340    2.82664687760217
C         6.32752660443096    3.19331516733112    2.49073774973532
H         6.11093475926714    4.24068896538317    2.63746332162291
C         5.27577802194752    2.30777631034005    2.18235415685474
C         2.71743376484812    7.71816677920180    5.39388866609948
C         2.48048336464458    8.03041580954400    6.73227966715876
H         2.70776273916922    7.30553828455903    7.50099141489278
C         1.94941937627470    9.25139597090648    7.07617107781424
H         1.75430811950433    9.50230923697177    8.10627403571057
C         1.64759082147450   10.19956145071818    6.09305748181169
C         1.91257559639955    9.89711497215578    4.75992732666303
H         1.71344914206303   10.60933418975781    3.97581137898666
C         2.44778188662586    8.66956224021926    4.41910273774824
H         2.67351199669318    8.45468119963551    3.38544596354296
C         0.78227448909833   12.35812207022642    5.59662554423048
H         0.03407708629569   11.99658185657642    4.88479900111255
H         1.66357191904214   12.71190632026253    5.05260721825054
H         0.36286253010723   13.17964385600214    6.17479299365023
C         4.82899130027111    1.68241103849292    5.85341136973190
H         5.87224950911635    1.60396219300172    5.53460686198591
H         4.33185374337120    0.72314119092887    5.72083603520855
H         4.78799395004521    1.97087985476986    6.90794398980096
C         6.31798292772887    5.62710549621918    5.30250677179329
C         6.72052635619210    7.38111651313526    3.77467464312672
H         6.63699827187554    7.45015003552884    2.68832245083280
H         7.76873990918290    7.24251763512017    4.06013887267332
C         6.16145962008756    8.62600301889139    4.44790441663662
H         5.11690292463300    8.77116232519886    4.18211022447054
H         6.73172688333579    9.49322513391151    4.12752700215147
H         6.24288110156162    8.53311215679953    5.52833100209350

