33
CSD_code = YOTKOH | q = 0 | S = 0 | Stoichiometry = C16H13MnO3 | MND = 8
Mn        2.98631019852793    1.77102365057040    1.02388382563350
O         2.94753617571619   -0.18302382200225   -1.16090565129656
O         0.15831552276642    2.52025063527980    0.87849707131785
O         4.02411109109340    4.01356192226137   -0.55314423577077
C         3.89701292925880    0.19739175476153    2.23671614088060
C         2.69909395082297    0.64567091035800    2.87574463328716
C         2.85767839684285    2.03304608665827    3.19720245140866
C         4.12727487411271    2.43788199829155    2.71815267761623
C         4.76371452381890    1.31683846524894    2.12002851003596
C         1.95777209892194    2.84194231074202    4.08131714187679
C         4.27642288330938   -1.23211857442305    1.99967898608061
C         1.62200256223362   -0.23847873272625    3.35843436159073
C         0.81459683184539   -0.94306339722146    2.46998083221605
C        -0.17283740749655   -1.78702985921044    2.94254786838742
C        -0.36660589577910   -1.93680485840138    4.30579783772409
C         0.43173975655311   -1.23858667255410    5.19559077526838
C         1.42152182646768   -0.39409049278065    4.72710341295127
C         2.94571830782577    0.61593270194857   -0.33371849635326
C         3.59098057527119    3.12668978155175    0.03459525184309
C         1.27233568837111    2.23878915953076    0.88100177941646
H         4.59722500307236    3.39063404065200    2.92679180245339
H         5.80544143303078    1.26802005442935    1.82988582785079
H         2.30911023748635    2.77835277891436    5.11376562506377
H         1.96175094040315    3.89102476053850    3.78958377431900
H         0.93473388113536    2.47103546950384    4.04636634758755
H         4.74561019986059   -1.62926442262018    2.90321898296530
H         3.40411350549514   -1.84388907225251    1.77794270097458
H         4.98720203455336   -1.32066702162004    1.17981870305352
H         0.95412155673612   -0.80691364507008    1.40401479004976
H        -0.79621469957616   -2.32485621964361    2.24379267040713
H        -1.14037938742325   -2.59386293705925    4.67384664509763
H         0.28413619421662   -1.35136623345155    6.25973218724837
H         2.05065421052598    0.14112947979581    5.42443476881497

