58
CSD_code = YOTLAW | q = 0 | S = 0 | Stoichiometry = C26H23O8Re | MND = 6
Re        4.68018645286103    0.88258865248042    9.68152030842593
O         8.13082696826645    4.95480863188676    9.96597883384955
O         9.37010900193383    3.08616017951070    9.90463667709854
O         7.90395080045458    3.26973606833906   12.56188576800630
O         4.03795919872147    0.52746951255636   12.53672483133326
O         2.70859502590546    3.25295627813326   10.04686825317956
O         4.45486944976875    0.82386970192535    6.57277423870893
O         2.44451267800068   -1.21885708582106   10.22748300607975
O         7.01507617575300   -1.15263923278747    9.86875831259565
C         6.35720195532023    2.29645339415348    9.47294991635041
C         7.10994541659943    2.83048693159454   10.47113245165548
C         6.95560595025720    2.62872064361728   11.88207636375846
C         5.95654065762228    1.88238903508944   12.49916989386979
H         5.96634293398226    1.88076809823099   13.58161626044326
C         4.96713952517559    1.15361245965920   11.83473477969977
C         3.41066790224502    2.37454692899732    9.84901693798845
C         4.52295655849716    0.81988280832044    7.71269821730221
C         3.25721602569745   -0.44640614868632   10.01144967508480
C         6.11978068012647   -0.45372144089624    9.74854830387140
C         6.80379294810959    2.65813999729112    8.10854467514919
C         7.71693480729339    1.86430982319012    7.45362476321891
H         8.11328729715964    0.98807548481469    7.94816488062047
C         8.13791443765492    2.17432317077835    6.15474421756241
H         8.85885236021510    1.53141757440823    5.67063400582249
C         7.64275246419931    3.27182563424741    5.50841549443431
H         7.96109940241967    3.51113166540682    4.50382500409578
C         6.70801127103324    4.11485346260431    6.14412024388912
C         6.18283181008638    5.25908396864512    5.50764996052162
H         6.50588052090332    5.48304952411628    4.50049819414150
C         5.28752568967605    6.06852720106456    6.14744759128771
H         4.89020826118319    6.94222408374834    5.65118037390913
C         4.88014668388819    5.77495122962424    7.45753054027177
H         4.17779043204500    6.42801856088577    7.95441647356694
C         5.36955303766922    4.67432486732863    8.10209698876650
H         5.07064228593926    4.45371004577896    9.11665640950135
C         6.28651627912754    3.81395071623919    7.46462922629233
C         8.23518365950012    3.76552812173131   10.09570466042963
C        10.48726866742357    3.84785763406732    9.46743108545378
H        10.32519326089795    4.19120134234355    8.44353480806888
H        11.34781687783256    3.18527183351233    9.51451668726339
H        10.62966032982817    4.71670699793991   10.11332126801552
C         8.00909992480338    3.20648740696391   13.97430040854712
H         8.08427596598387    2.16092978892220   14.30021478588038
H         7.12553454695898    3.66626815267786   14.43605843325846
C         9.27098299314098    3.97107616768778   14.36326176270478
H         9.21063403209653    4.97081955534031   13.93110988644480
H         9.30011524949963    4.06512280434572   15.44992897058155
C        10.52442900899346    3.26719712973758   13.85838723054697
H        10.47012453836428    3.13773393354732   12.78056141386476
H        10.62669332663209    2.28717509675335   14.32007135971552
H        11.40856357054050    3.85321512326312   14.09443111160586
C         3.93798460088878    0.57793078204683   13.96391982806286
H         3.85408762325989    1.62028638605275   14.29418551671678
H         4.82984127841357    0.12522393978157   14.41425003061881
C         2.69349413942337   -0.20395787616919   14.34993201102492
H         2.77628148598227   -1.22958914791319   14.00111339620148
H         1.81621290831589    0.24563228239764   13.89297751098002
H         2.57379866546954   -0.20225988150514   15.42968576163039

