79
CSD_code = YOTMEB | q = 1 | S = 0 | Stoichiometry = C42H33AuBP2(1+) | MND = 3
Au        2.38683131594522    1.60099908194039    9.47337913685526
P         1.07097112910700   -0.22149859118443    9.03595977670675
P         3.70854029283284    3.10742510584953   10.57555721060112
C         1.64830389747942   -1.08793451065466   12.95406834481912
C        -2.36527302071014    1.36165589743325    7.59539476429254
C         3.05300157631531   -1.77770874463095    7.97429199737003
C         1.10853059747369   -2.49846350310085   10.64089004698164
C         2.23553392908904    2.11171705581159   12.73530328057359
C         1.71448123511228   -1.41230835606607    7.83210046541399
C         6.08736055347226    1.94388912146321   11.45233548916841
C         1.54137238427758   -2.80762406650478    5.89132242896301
C        -0.67108141705600   -0.00953542552910    8.59712954648959
C        -2.45032224138866    1.67504000893771   11.04449718027905
C        -1.23988398528049    1.09596448354380   11.37768687328206
C        -2.93498837751013   -0.78832947338775    8.51023337116553
C        -0.15652257548018    3.20981598807060   11.11100231433796
C         3.54864070870577    4.85945435063702   10.13678107967744
C        -1.04525993383387    1.16710090203462    7.95729105801598
C         5.48644332809739    2.77761935021760   10.51312428951727
C         1.42096563973071   -0.36285435386670   11.78413323531110
C         2.61022289763919    2.88618891916394   15.01177442491962
C         2.42767050104635    5.24960453182764    9.40864531337387
C        -1.61775517986547   -0.99079475799333    8.87653190134870
C        -0.05862938942382    1.84522004646002   11.41151089719881
C         1.58369060650453   -2.47111058097222   12.98290050764645
C         0.96051829563203   -1.91788243780599    6.77917642694807
C         2.86499089326212   -3.18478868344577    6.04484555426989
C         6.22863925892730    3.27148248902505    9.44134320207471
C         3.62258265486270   -2.66774452459862    7.08606467624585
C         3.64404917480804    3.70851512661639   14.58959850867712
C         2.24214715304386    6.57995130781694    9.08103361960205
C        -3.30828620578462    0.38494399194714    7.87213639504405
C         3.17741152492995    7.52481164529012    9.47111228098493
C        -2.50945742158813    3.01687663654567   10.70946630519676
C         4.30553987151716    7.13676924800719   10.17696613968541
C         4.49781823596941    5.80873188599387   10.50934558411620
C         1.16123074191276   -1.10972722628031   10.61881286313335
C         1.30029204136247   -3.18126341398801   11.82904829323071
C        -1.35588935893884    3.78568279213574   10.74507267227796
C         3.26372918702155    2.97167830295844   12.33078080465692
C         3.96148420758650    3.75713907766356   13.24867587032188
C         1.92083412103018    2.11127278140374   14.09942567588664
C         7.57311130704402    2.96838782400199    9.33985024124132
C         8.17689143543932    2.16068360689507   10.29160438841949
C         7.43341654169146    1.64560628473601   11.34150981372805
B         1.30656886840983    1.20855592412974   11.83680590384343
H         1.87936491973990   -0.55566602590307   13.86454564239110
H        -2.65937782805373    2.27351433403082    7.09856331715841
H         3.63278505392966   -1.36203315467000    8.79044919234699
H         0.93450521725286   -3.04527922816477    9.72329063571095
H         5.50347827406394    1.54257795300664   12.26964638014138
H         0.95637171705658   -3.20660224503012    5.07668796822419
H        -3.34930407182615    1.07721950146446   11.04192423570455
H        -1.21020057100144    0.04950002645630   11.64800099188359
H        -3.67374727446950   -1.54633558221375    8.72289131736668
H         0.73417958163067    3.82404213002725   11.16957548157415
H        -0.29636856701773    1.92191483996269    7.75174721207510
H         2.33780667498536    2.85368443171304   16.05568304437577
H         1.71014992307248    4.50153792724188    9.09328364048486
H        -1.32078240034638   -1.90036798013860    9.38034828002464
H         1.76353902735175   -2.99555175928235   13.90901581416614
H        -0.07187892192283   -1.62154929647953    6.65723585669005
H         3.31055750671019   -3.87984371563655    5.35012414330744
H         5.74959072825572    3.89860473472888    8.70089844299966
H         4.65596774472889   -2.95771452835329    7.20048037606129
H         4.18777901115582    4.31250571381085   15.29927185237428
H         1.37203588205934    6.87907618574142    8.51662419560783
H        -4.33874210461112    0.53769921913104    7.59018329939006
H         3.03331719356059    8.56314643916871    9.21558352458047
H        -3.45207528604310    3.46686199485810   10.43744980029631
H         5.04112727370087    7.87170620160710   10.46645670711653
H         5.39198049702536    5.50864675407407   11.03742492342144
H         1.24967823945716   -4.25903701892294   11.84748824921703
H        -1.39863430261326    4.83770388593768   10.50428495538102
H         4.75665433000577    4.40268852217108   12.90346556101098
H         1.09879105450182    1.50049911125826   14.44428640402253
H         8.15151244071901    3.36177087870533    8.51783947792172
H         9.22802641211232    1.92997178236419   10.21245035514502
H         7.90334562441302    1.01029284879257   12.07687856793666

