52
CSD_code = YOTTOS | q = 0 | S = 0 | Stoichiometry = C24H23ClN2ORu | MND = 9
Ru        7.06894531575331    1.79233419893907    8.70740228496759
Cl        7.81756601385470    3.90370471946740    8.03743894035856
N         5.40820487070653    2.21776206959489    7.71907050255406
N         3.20402364370975    3.11982604543348    7.88743669195914
O         5.69182306793112    3.02707017248667   12.50767163148667
C         4.35663436975943    2.80580335923902    8.42084005487066
C         3.00936269882347    2.89498010557964    6.57793231928527
C         1.77547804298941    3.21688377203724    5.97934670274284
H         0.99984498285242    3.62917341567952    6.60432308846374
C         1.59249679266214    3.00855910347373    4.63930620148206
H         0.64811360408643    3.25770092960654    4.17805722454030
C         2.61975156359304    2.47572186887890    3.84209412610976
H         2.44621999358401    2.32674768281066    2.78685422927816
C         3.82877938798303    2.14910040473643    4.39324818399794
H         4.62561508816320    1.73937267439188    3.78908037595399
C         4.04701529672409    2.34809330871326    5.76900928828057
C         5.25075278094681    2.03659687678176    6.42942318862245
H         6.09072711191043    1.63968284203029    5.86612181099981
C         4.69355987007482    3.06005224208165    9.77900425756388
H         3.98083995249646    3.53838127431632   10.43371647155285
C         5.97378540317130    2.73755449062919   10.11087783616421
C         6.50318685828878    3.00216824816366   11.41751980265918
C         7.79431577350753    3.28594275496123   11.80632084693701
H         8.63753693833560    3.38204210109944   11.15194423876081
C         7.75671173431258    3.49552167749318   13.19953128391247
H         8.57871931293308    3.74406447215378   13.83957256970257
C         6.45656313682823    3.31648277977368   13.56889584188624
H         5.97181846267921    3.36237590498545   14.52466468036719
C         7.08164375602460   -0.33104154875911    9.52403147418238
C         8.12559787222231    0.39462126633827   10.15571956089623
H         8.20304061596563    0.40937060060492   11.23559383289455
C         9.12167146978480    1.03372605294574    9.40157547506414
H         9.94464814975849    1.52819282325411    9.90696674298362
C         9.15060581648380    0.93299433669073    7.98148739394844
C         8.14552982901660    0.19788213980384    7.34843539186197
H         8.18428618184847    0.03547517118043    6.27752022705161
C         7.09088468412205   -0.36555776141005    8.10728510207771
H         6.35236738832923   -0.97615024837343    7.59412193892804
C         6.03417171534150   -1.12882404799216   10.27568031808955
H         6.08580061970990   -2.16210399548167    9.90306575962002
C         4.63450403805706   -0.57912064712754    9.97835834728819
H         4.55815477671738    0.44779898976655   10.33351351276929
H         3.88092177163330   -1.17974049368427   10.48251326269519
H         4.41958323317533   -0.58914168418355    8.91143086468677
C         6.25744986525244   -1.15446755844050   11.78581781373960
H         7.23609659450109   -1.55942683697286   12.03489024862027
H         5.50334833094442   -1.78409886721209   12.25205337465022
H         6.16492285080221   -0.15386842521203   12.20200415121618
C        10.24572868207729    1.59704992266849    7.20873917750185
H        10.31543130184856    1.19721227555813    6.19942096586331
H        11.20418296599015    1.47909953959562    7.71143743265758
H        10.02653542173255    2.66681950090412    7.14263295525431

