49
CSD_code = YOTXAG | q = 0 | S = 0 | Stoichiometry = C12H7F23O3P2PtS | MND = 4
Pt        3.78026099971741    2.78269099537209    4.75268858636466
P         2.20509994980728    3.52338830328093    2.93903573742389
P         5.34774972331729    3.45511454830257    3.36477740515711
C         5.01936769415566    2.55187204559957    6.37741726238495
O         2.26449555554016    2.13614659218470    5.97882357267804
S         2.20288102866507    0.68204683937579    5.67197059094196
O         2.24275216610970   -0.16439564331617    6.81167153650185
O         3.02614890945961    0.34560095613342    4.53810437504917
C         3.29729752605022    4.10435263697143    1.53662918340689
C         4.74339054098661    4.44085209776177    1.92893371565227
C         1.75634832593909    5.24953571577635    3.62758078901756
C         1.21374437184917    5.13673203392865    5.06898238974884
C         0.61951610015786    3.37779717919110    1.85390161370543
C         0.56670497372617    1.99238172636864    1.15910949827229
C         6.88489132833097    4.48782462469887    3.84932908329942
C         6.52702076033185    5.55084540210105    4.91969453054319
C         6.37578992563024    2.06045536778635    2.56647637231706
C         5.48634873449603    1.20919574300657    1.63453198003042
C         0.45261216822738    0.60698565530931    4.98267082077655
F         0.90073305096435    5.94454663096737    2.85791016523798
F         2.90163841160832    5.98001107690515    3.64854896037039
F         0.53411020055807    6.20718733691229    5.45204566662367
F         0.41124833219897    4.07802574777539    5.15805725090062
F         2.23093357378827    4.96925501862193    5.91497902059264
F         0.59756225319568    4.32747187068768    0.88888651958376
F        -0.47445029144921    3.58096444626773    2.60088578177353
F        -0.52941537832051    1.31313333586213    1.42189679060811
F         0.67038644700968    2.12693003171501   -0.16227731326520
F         1.62767447734248    1.26773771629217    1.54563392015984
F         7.86369589693926    3.69644500029646    4.31457721843156
F         7.36435723351235    5.10993844485402    2.74961936462052
F         6.82342991710570    5.13443055508977    6.13702004662024
F         5.20031268909348    5.76800034257616    4.87067145844598
F         7.12783010869593    6.71009728732821    4.70656405384093
F         6.87650972650319    1.30567995350340    3.55680558373339
F         7.41908729997295    2.54103591951724    1.85646045652685
F         4.22207283490969    1.26523905566894    2.07391798091285
F         5.47117496814358    1.76143001736567    0.41376870800336
F         5.85578881797027   -0.04500754242654    1.52290518863769
F         0.43338554253253    1.51229487395398    3.97123312352955
F        -0.47506621946617    0.96881704424670    5.85650804698644
F         0.11674346982193   -0.56701932377374    4.46432871734082
H         4.82939274707359    3.38971299309794    7.04706816624667
H         4.68664359840127    1.62239752746312    6.83995000868279
H         6.07858969011596    2.48477894940803    6.13235478770169
H         2.84788019352916    4.98112846080497    1.05835725201998
H         3.28608312106329    3.28913757933864    0.80614562150419
H         5.41176574246855    4.32192653436635    1.06749566251386
H         4.79918076226398    5.48765029541008    2.24775274781009

