38
CSD_code = YOVHOG | q = 0 | S = 0 | Stoichiometry = C12H20Cl3OPW | MND = 10
W        14.70863103729852    1.67454463482449    0.41399250740324
Cl       13.24829689787228    0.29064828020875   -1.08294484527477
Cl       13.29960596411754    3.42876781660970   -0.38271547011465
Cl       15.76080177170889    1.94525435316180   -1.74083722174051
P        12.57497329536955    1.03141451563867    1.59022144175892
O        15.52464301054368   -1.35850269525922    0.41080520957820
C        15.24295184508576   -0.23906293269506    0.40459781014198
C        10.98655571462839    1.52507354938697    0.83619319756950
C        12.25461936205975    1.61264781705300    3.31038316649794
C        12.34947689260338   -0.77042953227417    1.84210076085793
C        16.78793771171736    1.56494427924768    1.51709236745362
C        15.69566782979116    1.58718355559468    2.44903075723187
C        15.06317189391273    2.86747424045962    2.31483892265594
C        15.78742309924179    3.60660450906016    1.33854786850013
C        16.86712880273101    2.83471571554232    0.87548633895541
C        18.00418769720835    3.28591460406527    0.00135981790898
C        17.68130274080518    4.57684756594916   -0.74719077409049
C        19.24768850409425    3.46941236954293    0.88208594629775
H        10.16737185620724    1.14261713994731    1.44549047180745
H        10.94503549445673    2.61253608083300    0.79199065540663
H        10.91824369661051    1.13149926436581   -0.17604140419719
H        11.33558759647276    1.15545967756022    3.67490902203270
H        13.07197476918043    1.33925386992856    3.97410800044687
H        12.12911102439811    2.69369829550881    3.31276123125293
H        11.38715221893667   -0.95614595973733    2.31722685702823
H        13.14641049215891   -1.14781298074036    2.48121149192728
H        12.38940395649100   -1.28342822980211    0.88394664731163
H        17.56125733135448    0.80789904592782    1.47932269769397
H        15.57339863760843    0.89788289396038    3.27591482260321
H        14.36052274499329    3.30827703193146    3.00791387774165
H        15.59484734506257    4.63936184104870    1.08518334447870
H        18.20720181389452    2.50047977527523   -0.73488467578739
H        18.49088565116680    4.81721481812258   -1.43133874352756
H        17.55990177027617    5.40861098609603   -0.05599184817408
H        16.77058530785826    4.45477583875972   -1.32811498046802
H        20.08710319926062    3.78735903768753    0.26963454479773
H        19.51539444551436    2.54119496028873    1.38072362833582
H        19.06484657730523    4.22871396692655    1.63988655769790

