115
CSD_code = YOVLOK | q = 0 | S = 0 | Stoichiometry = C58H48ClNO2P4Ru | MND = 6
Ru        3.93139477205547    0.61552880905868    4.16989360189180
Cl        2.63554320263685   -1.36661505316513    4.63885821312662
P         4.89929713873450   -0.90288647226563    2.73200136515881
P         5.75845119822757   -0.32137694517438    5.24964262734273
P         2.91013555379313    2.08527587145509    5.59556197865815
P         2.27505959166060    1.62690993710085    2.96971489571194
C         4.89362378425791    2.28613849184085    3.67981421159667
C         5.46139035378941    3.32436728729067    3.38730134216230
C         6.19815361502367    4.46113579839108    3.02523795298182
C         6.61321061443243    5.38495983838089    3.99870425231172
C         7.35302776178562    6.48498830034574    3.64273123431107
C         7.69392155640310    6.68541800020770    2.30354607441444
C         7.28560013477300    5.77809330819298    1.32360584278582
C         6.54575256979807    4.67889886767011    1.68128380514793
N         8.46281029325640    7.82197882073697    1.93514556219187
O         8.80015470768934    8.59835270569371    2.81503270691498
O         8.74881985344346    7.96640362029369    0.75710286050178
C         5.78497000495753   -1.79448016927339    4.11104883984514
C         1.97909092365279    2.96584757435128    4.24274711003693
C         6.28371301015920   -0.62046114241738    1.57620131416671
C         6.96404469999184    0.59003018628425    1.65665171428270
C         8.05929755546891    0.82575537006121    0.84627377084114
C         8.47638425431390   -0.14276285463515   -0.05180494021344
C         7.79249497862209   -1.34496757631864   -0.14273106553830
C         6.69745836271601   -1.58773535815723    0.66671129119461
C         3.88113553205317   -2.13719409901791    1.87819669342064
C         4.13908289029631   -3.50282571918503    1.90167259528401
C         3.27981955553689   -4.37054812089427    1.25159931489345
C         2.16534407918225   -3.88467516250090    0.58732537768024
C         1.90352070977434   -2.52391199327391    0.56817636528996
C         2.76194139906142   -1.65364885991795    1.21004728744001
C         7.36044042031056    0.50568106160153    5.00041145065159
C         8.47660780395977   -0.07517472310051    4.41066840491068
C         9.62471809007080    0.67306584018019    4.21778709723175
C         9.67260382604757    1.99835644159850    4.61551004874730
C         8.57033946782367    2.57749162829664    5.22337437193105
C         7.42023611941869    1.83610333118675    5.41211232895024
C         5.90462376371378   -1.02397533466388    6.92116876289942
C         6.97436882507405   -0.74911290561615    7.76632044784797
C         6.99215758813557   -1.28062038660595    9.04371370457983
C         5.94614646507592   -2.07409738251850    9.48563863784971
C         4.87184723445618   -2.33641957126357    8.64968949881339
C         4.84614902689180   -1.81051428796307    7.37235205284569
C         3.86566350316518    3.32278279805711    6.52277699245284
C         4.70751024801489    2.78116982938347    7.49196504061150
C         5.49540505170509    3.60431146762200    8.27238696313108
C         5.44671352165765    4.97780677028979    8.08709297425408
C         4.60828117826745    5.51971572284473    7.12723869481788
C         3.81536426317801    4.69715894843312    6.34371527250471
C         1.63376797541253    1.75200169792783    6.85330941138020
C         0.83144296411726    2.78864871023704    7.32203987240968
C        -0.12042364940547    2.53314026138119    8.28947797223352
C        -0.26841834453999    1.25033846191391    8.79701322979245
C         0.53865846627199    0.22234874865018    8.34056700857644
C         1.49422313798372    0.47061902188194    7.37024790720921
C         0.61486729641266    0.93876616554266    2.72724307532774
C         0.06604348501806    0.72909993405223    1.46646258696120
C        -1.16169322769005    0.10293661973841    1.34991706200410
C        -1.83474104783104   -0.32972135277599    2.48085225499870
C        -1.28157967680752   -0.13609498275801    3.73699827641826
C        -0.05818846446487    0.49200889477160    3.86133803117657
C         2.60751794289970    2.52682775519267    1.43196685470481
C         1.82237363054555    3.60986818356026    1.05027898933912
C         2.12445316104323    4.29922464003879   -0.10896834529817
C         3.20246812975047    3.90973863974995   -0.88962537673053
C         3.97869334203991    2.82478657027331   -0.51576342543805
C         3.68287103742396    2.13497466419617    0.64575679718702
H         6.34086220495905    5.21552321229801    5.03038816397058
H         7.68243668193058    7.20493793252917    4.37684657082942
H         7.56313332407109    5.96140316148123    0.29654200305842
H         6.21950351803050    3.96764352081161    0.93646267247677
H         6.75424584297747   -2.23992329568399    3.87401834530505
H         5.10338450782969   -2.54470097857820    4.53143396953372
H         2.52814400163834    3.85888995683484    3.92450718608191
H         0.93075852855589    3.19585408427714    4.45625089888803
H         6.62114246573542    1.34430910960703    2.35360926762551
H         8.58449785462061    1.76693801542237    0.91794516031850
H         9.33091695826984    0.03934828237732   -0.68685519138276
H         8.11371379155285   -2.09717588594155   -0.84883862259285
H         6.16103979599310   -2.52324867248474    0.58754526377884
H         4.99800363699834   -3.88645442116180    2.43620420558873
H         3.47454934026173   -5.43327388223259    1.27272802279377
H         1.49244938704533   -4.57037191109220    0.09370280438730
H         1.02544471256402   -2.14463309454100    0.06596576443101
H         2.55977799099907   -0.58616882113499    1.22752024521953
H         8.46606877533070   -1.10850795283554    4.09659021170470
H        10.48555998931608    0.21709399325993    3.75051773295462
H        10.56883529192738    2.57874794566376    4.45378852273868
H         8.60511726332029    3.60934357739483    5.54022327062391
H         6.54833379182768    2.28121081848323    5.87251478213086
H         7.78734572076489   -0.12430859828211    7.42340210750236
H         7.82639614245413   -1.07235405305033    9.69808303043588
H         5.96602492235076   -2.48392683876073   10.48485731362357
H         4.05222205877563   -2.94846714002692    8.99675163615100
H         4.00477581086353   -1.99636573732862    6.71615676543808
H         4.73499021309646    1.70228312377964    7.61566579663130
H         6.15017414444191    3.17883729927976    9.01880088134378
H         6.06503430353156    5.62621104373735    8.69001177651782
H         4.57346121801473    6.59013557878406    6.98359906443694
H         3.17037958266215    5.13251520591164    5.59393201797105
H         0.96223630373607    3.78903500769147    6.92946890665244
H        -0.74854125782927    3.33386754365321    8.65266341060744
H        -1.01605165250967    1.05611864239217    9.55219177623930
H         0.42250547590526   -0.77540543317280    8.73728552143893
H         2.11687134886133   -0.32637488841063    6.98772740754068
H         0.59658682780737    1.06078556093372    0.58324427877437
H        -1.59274345911486   -0.05352795121416    0.37128693280046
H        -2.78913311571357   -0.82590157146343    2.38243870312410
H        -1.79924711200854   -0.48421205280151    4.61877502192233
H         0.39317292101583    0.62604868747292    4.83782820336210
H         0.97862744602184    3.90213946550584    1.66187765534594
H         1.52028037234010    5.14385700038874   -0.40665319709850
H         3.43677862287926    4.45568541498053   -1.79143179544542
H         4.81582630525299    2.51843925306339   -1.12654676577983
H         4.28994998862186    1.29276559878792    0.96164317697012

