37
CSD_code = YOVMOL | q = 0 | S = 0 | Stoichiometry = C11H17BN6OPt | MND = 6
Pt        6.17544450184738    2.81487057577930    0.06187345300466
N         6.39680934823770    4.04983445636272    2.82769896250747
N         5.83339587195924    4.28398824806565    1.64143981266035
C         5.07393099689953    5.35955164314978    1.75270745352480
C         5.14508543708444    5.84938073650189    3.05695657186590
C         5.99794265178555    4.98199938453040    3.70581006274834
N         8.39136562312589    2.81468305627013    1.99743044883917
N         8.14184064711956    2.81486609673519    0.68705696667240
C         9.30132478697369    2.81499670896355    0.04371241977960
C        10.34313147441330    2.81486242523017    0.96783862045409
C         9.71582592791916    2.81463161237780    2.19682922879680
B         7.27580414124131    2.81471639141778    3.06227316786399
C         6.48797826274517    4.30927153313575   -1.32189459942942
O         4.22561329974808    2.81416256597054   -0.38963537690885
H         4.51572457826882    5.73016548142002    0.91593044177164
H         4.64705170092649    6.70553985408096    3.46274276488484
H         6.33994082594371    4.97096802904606    4.72088344192131
H         9.34222069352131    2.81523808369336   -1.02805693635691
H        11.39444824978423    2.81494044682010    0.76843278924724
H        10.12836150554759    2.81448560268229    3.18496124768007
H         7.73869216390581    2.81470631089326    4.15070616329716
H         6.85908135650467    3.96879025509988   -2.28811316438798
H         5.55153574675077    4.84369338089310   -1.48912447652755
H         7.21182176479730    5.01534861422775   -0.90978263363607
H         4.10071656565643    2.81402528035996   -1.34305778045126
N         5.83374651091261    1.34543446898989    1.64122401873591
C         6.48811687784819    1.32027849279418   -1.32168713267524
N         6.39692630940277    1.57957698080814    2.82759266461807
C         5.07398183635535    0.27007541739186    1.75245844584782
H         6.85926649445404    1.66083878542192   -2.28785606584858
H         5.55190546534513    0.78543720491668   -1.48910448519333
H         7.21215766383097    0.61445434558544   -0.90943939179233
C         5.99768418167578    0.64759332049352    3.70571696280282
C         5.14472477154301   -0.21962600534237    3.05678334425570
H         4.51575305345294   -0.10043471692858    0.91564301323525
H         6.33948137075592    0.65865600712838    4.72086468945519
H         4.64636734171623   -1.07560107496640    3.46258488673686

