81
CSD_code = YOVYAJ | q = 0 | S = 0 | Stoichiometry = C35H38N4NiO3 | MND = 4
Ni        0.38466133926069    2.25654179203602    1.82713766008752
N        -0.40637714075345    3.69569916711724    0.82759902001385
N        -0.97346722293818    0.98692009853132    1.24352178210288
N         1.19741128350373    0.82414433166837    2.74254434053896
N         1.76042764902175    3.53285292881975    2.50122632981127
C        -0.12905681638010    5.02566591755108    0.87754745689127
C        -0.76124010330876    5.70876864535445   -0.22918465578928
C        -0.61258077259095    7.13545658636477   -0.63534822312660
C        -1.45899489062169    4.76248588593064   -0.92194811826906
C        -2.30364856153582    4.94343900280165   -2.13815202395569
C        -3.72788774779350    5.35933828864266   -1.76171607444194
C        -1.27968131408237    3.52150112881885   -0.21915443601958
C        -2.01087116115795    2.38205070907542   -0.46565561114519
C        -1.91596665106295    1.22264291170750    0.29133287022919
C        -2.80829637847926    0.10171394302589    0.16731956694003
C        -3.96311749995649    0.04762221211648   -0.77114595777118
C        -2.38578407052053   -0.83043854771315    1.06925270151772
C        -2.98660317133808   -2.15963132700487    1.38350348820913
C        -3.84648078127672   -2.08400565931992    2.64747411101654
C        -1.22138188781618   -0.27960649848754    1.71269124691503
C        -0.40262400923392   -0.98528094128514    2.57860736976315
C         0.79510619551744   -0.46877862295876    3.03329078889782
C         1.80209793193511   -1.16582383749404    3.78966461802735
C         1.71574748523463   -2.55884264123176    4.29136868443379
C         2.84008839394948   -0.26697359375143    3.92212779387342
C         4.14646373151823   -0.03986549885201    4.51099858205370
C         4.51544722926910    1.42454043624548    4.17400098145013
C         2.41392888997756    0.92936006078113    3.27479504165497
C         3.32272430351008    1.97575669541008    3.43524417409498
C         2.96063074824112    3.24187011749143    3.08418442866992
C         3.73725647383057    4.49805904038703    3.37916566637997
C         4.62487994118402    4.90288548455607    2.19532736903751
C         5.72440877133743    3.88902003398317    1.90432397972997
C         6.63958331599794    4.36824776498422    0.80071917757083
C         8.51375351512627    3.77944645439594   -0.48321487575295
C         2.57797484415427    5.48491737780962    3.54404991506225
C         2.04821288652009    5.47630338549231    4.98021070362112
C         1.56201551389570    4.87091163389870    2.59834682055521
C         0.66032441838231    5.62193691952881    1.88300317322666
C         0.54658292694705    7.09298263369395    2.17307400000684
O         4.84716740988806   -0.79402669962030    5.14693279663288
O         6.55774448761932    5.42176561232828    0.22907626910516
O         7.58240621671270    3.45332192897094    0.53978348478777
H        -0.83846300323023    7.23558331930378   -1.69517156043440
H        -1.30118836243738    7.78285204426741   -0.09184738138709
H         0.40080805647298    7.48933323466371   -0.46799431726092
H        -2.33188835801115    4.01542252061026   -2.71185589566351
H        -1.86563392146082    5.71236406652536   -2.77873113325990
H        -4.33861000307232    5.47729609314502   -2.65407575897314
H        -4.18609615338047    4.60877879166148   -1.12162153672609
H        -3.71473282467312    6.30361002637817   -1.22279127677618
H        -2.74090728549463    2.40368499542620   -1.25857222135136
H        -4.48534985053561   -0.90120136699924   -0.68393915063867
H        -4.66932365838398    0.84875354014789   -0.55363556247051
H        -3.62606371859421    0.16326888925641   -1.80120383427063
H        -2.19837628785571   -2.90254618390761    1.52275712513347
H        -3.60455323264250   -2.48932230248478    0.54631134991874
H        -4.27420454363300   -3.05759558644996    2.87640217717514
H        -3.24908951701637   -1.75645482016287    3.49510143142164
H        -4.65720205907502   -1.37259530663706    2.50787638609607
H        -0.67632029949717   -1.98943085450413    2.85927936032985
H         2.60738065278016   -2.79559852947687    4.86579880989817
H         0.83816548256222   -2.68639346597624    4.92501655477346
H         1.63533963205634   -3.26026001656377    3.46046427895599
H         5.42656026638787    1.42657923793503    3.57219800342789
H         4.72983603326247    1.97007306545237    5.09547973261352
H         4.34511367859537    4.39749855233387    4.28056412092267
H         5.08388152369587    5.87094910583853    2.40678961599865
H         4.00479352004304    5.02099957731516    1.30410175580874
H         5.29882282531066    2.93213311864434    1.59689944158023
H         6.33654653717104    3.71309703123626    2.79168785768338
H         9.28989536801752    3.01964913018230   -0.44272974768495
H         8.02178095968145    3.77053000578643   -1.45787354794699
H         8.93421455692198    4.77185071688799   -0.31022753028898
H         2.86048924871226    6.49697109152207    3.25336508970764
H         1.15431300351295    6.08812997199612    5.07322333166490
H         1.79533504203770    4.46047203203253    5.27781826694151
H         2.80304019900796    5.86225195350783    5.66221696394509
H        -0.43777551443471    7.45819926299971    1.90333947742594
H         0.68951414652991    7.27824178948723    3.23378746164272
H         1.29566213897912    7.66943000679852    1.62946544545108

