36
CSD_code = YOWCAQ | q = 0 | S = 0 | Stoichiometry = C11H15NO8Zn | MND = 4
Zn        2.17128571624995   13.76819954236749   14.86796242298775
O         2.96595935422097   12.24339591386200   13.68877997790384
O         2.35077131467253   14.13603888146996   12.79075111980544
O         5.30645793239132   15.42430022426498    8.78831683028894
O         4.54625019242343   14.04578998721160    7.16194994582668
O         6.53176101307636    9.76425294411973    8.12198252160226
O         3.97745238227663   15.51685841818062   14.63103616279777
O        -0.11714269491355   13.01433659969344   14.24004083631509
O         3.96803738538338   13.07146442900133   16.35255373660639
N         5.24669544798320    9.70120968899416   10.00630372460280
H         4.94083354104458    9.08354506927684   10.74571814682099
C         2.93259473412718   13.03573225377575   12.72386401533431
C         3.64973412256496   12.66023415378531   11.46802429966203
C         3.88804797758553   13.64125931902454   10.51203619927730
H         3.55136532932074   14.65382496765363   10.66723002252049
C         4.57449943449268   13.27683589857751    9.37598889576905
C         4.85330056991583   14.41753912069091    8.27691368394739
C         5.03118726796328   11.99332685552072    9.15923547396815
H         5.54944309800490   11.74401048581471    8.24715837726089
C         4.81059592427313   11.01857345014271   10.13502779337762
C         6.04766949260386    9.14962520235780    9.03885424886585
C         6.24434058263969    7.65588903922899    9.23919701024060
H         7.07354567402166    7.34322935398180    8.60458790897865
H         6.50170928133351    7.44653996272970   10.27982880450551
C         4.98006544173475    6.89375962451960    8.84085160675117
H         4.13383328034603    7.17545656055877    9.46458792954063
H         5.14068058537665    5.82318943051005    8.94307450254970
H         4.72747477008470    7.10665469846306    7.80522270319518
C         4.10610110515635   11.36067199764086   11.28752324007989
H         3.90885510198041   10.62045109075227   12.04918542001566
H         4.22202857780588   12.23009368500650   15.96018436480493
H         4.67449877029822   13.69765127694169   16.16374100011701
H         3.80677163396908   16.38742215227031   15.00251711996777
H         3.96678851840304   15.62023109501679   13.67222341731066
H        -0.29916060364825   13.49923040217077   13.42839322345182
H        -0.08303225512046   12.07997622428240   14.01405331287677

