53
CSD_code = YOWGOG | q = 0 | S = 0 | Stoichiometry = C23H21MnN2O6 | MND = 6
Mn        7.79038916536406   10.48991934932343   11.42984792130237
O         6.85084825064002   11.76230125274753   10.68296144436367
O         8.67813750090404    9.45268145999663   12.71294464781107
O         7.40807608426451    9.02332494982432   10.36495095879389
O         9.41495358539331   10.84465290835345   10.40306175331287
O        10.99803554898416   10.63123684276628    8.85444890429751
O         5.92815933390437    9.90753220492177   12.54788578715670
N         8.36851101637315   11.84927475389877   12.76830301386443
N         9.02722823602635   11.36347960183127   13.82921777581838
C         6.95408688280476   13.05498065875388   10.56368486856622
C         6.33528543602339   13.74233542784109    9.50514274384401
C         6.38997487005512   15.11441024748889    9.42752192206664
C         7.04743197893225   15.85271018562961   10.41058999784909
C         7.65880570035398   15.20564165094610   11.45836906210421
C         7.64731549390048   13.80723653510779   11.56067050106096
C         8.30836807330505   13.14575961942131   12.63448575994626
C         9.18393231793126   10.05937336118573   13.72401010702737
C         9.93841997039441    9.32921119419260   14.74712782076460
C        10.47298355468491    9.99382134350805   15.84984003924767
C        11.17880561008777    9.28804936021631   16.80470803043347
C        11.36051062518293    7.91967134613144   16.67034595904309
C        10.83226295946544    7.25512106326187   15.57497481806718
C        10.12348367195489    7.95373970831898   14.61659682245118
C         8.02387748685781    8.53674612315149    9.33832707435004
C         9.23942653602888    9.06585495416988    8.80448426694766
C         9.83639856496605    8.45481076253305    7.68966793672791
C         9.26808269156014    7.35976133103041    7.09014693895339
C         8.07585085627051    6.83766282019626    7.59668849881450
C         7.47285966453850    7.40574070879135    8.68824781329498
C         9.84916883586129   10.21909459002513    9.41954334606211
C        11.60980085188625   11.76228650424235    9.45545498001439
C         4.72989225465459   10.66746668961509   12.53212073692473
H         5.82454727001597   13.15988320377586    8.75199160705720
H         5.91559010297057   15.62238437843969    8.60081431702742
H         7.07564905919956   16.92974664690052   10.34552150478988
H         8.16859638736513   15.77240728540755   12.22432270415873
H         5.76262823805196    9.06189724070249   12.10500888908080
H         8.80032830606310   13.75228553733476   13.39039922281479
H        10.32081689692330   11.05757593681444   15.93425072018162
H        11.59217993851536    9.80334623529519   17.65953050654464
H        11.91400351760253    7.37174514674914   17.41901778302342
H        10.97422880647587    6.18918156239998   15.47029188416423
H         9.70449443615250    7.45209782500929   13.75690222640955
H        10.75741613301248    8.87268336508510    7.31432854345556
H         9.73642696472355    6.90195756815956    6.23258633695986
H         7.62637698386386    5.97550264811688    7.12524687837132
H         6.55200279933810    7.00429205045333    9.08574174163013
H        11.84491731601918   11.56016303356308   10.50287113207022
H        10.94602657849974   12.62880255513499    9.40674190442954
H        12.51877079761634   11.94380923492406    8.88712566445615
H         4.41019285999673   10.89665982098474   11.51214239841537
H         4.93822746502430   11.59874550612590   13.05737640997677
H         3.93681553301535   10.12504370920333   13.05601537369558

