28
CSD_code = YOWGAT | q = 0 | S = 0 | Stoichiometry = C8H14Cl2N2PdS | MND = 4
Pd        3.44440306077452   -1.45379373230769   -1.30046169449486
S         3.78866644787481   -3.16614111184840   -2.86295962280119
C         3.54245812659320    0.04969350122312   -2.64729688879926
C         3.44695287725782    1.02092741794658   -4.66093697397075
H         3.19774962753362    1.11960548039946   -5.69740599473533
C         4.07906230982355    1.86835694860883   -3.81659834910703
H         4.48600648694499    2.84373792806710   -3.98697616490840
C         2.53466815245344   -1.29247179717691   -4.45755628133830
H         2.13101958471376   -1.07457992278247   -5.44972212161398
H         1.71268208557088   -1.61343158310604   -3.80113962752694
C         3.57508627406319   -2.41266773943026   -4.53748640402834
H         4.53218038251040   -2.03379478559196   -4.89253597212284
H         3.22527605096014   -3.20462436122590   -5.19861878331478
C         5.59935571868721   -3.35420556810217   -2.73569945447305
H         5.71890209623385   -4.09968461091795   -1.94863778616329
H         5.95061777387165   -3.76545493615663   -3.68247089985984
C         6.31622579511598   -2.07009410704735   -2.35720376152987
H         6.19586045277648   -1.30537657504621   -3.12690629083728
H         7.38022257886866   -2.26573972348657   -2.23362379558718
H         5.91868984651493   -1.69436784214452   -1.39593704834541
C         4.78943909296408    1.83552331199756   -1.45021268094460
H         4.38883852965729    2.83023289652621   -1.25822233683712
H         5.86349326642483    1.91028676360041   -1.63090093624930
H         4.59461464372205    1.20311584293686   -0.57938121634522
Cl        3.51713748737112   -3.23476888147160    0.08956137114408
Cl        2.89600761724273   -0.09660055296022    0.39954430820909
N         3.12314379263170   -0.08993578551586   -3.92741169168796
N         4.13633984084440    1.25505352501464   -2.59370290173007

