71
CSD_code = YOWGIB | q = 0 | S = 0 | Stoichiometry = C29H35Cl2N2PPdS | MND = 4
Pd       -0.64875085982201   12.21754927021843   14.84214523863859
P        -1.77326869517460   13.97069946405446   14.02513623533991
Cl       -1.78816691377398   12.83426247590270   16.71862822789442
Cl        0.35921467386944   10.44642937338642   15.87966010226366
N         0.27528953631889   10.48099195839867   12.60992035141259
N         1.56354523197462   12.18526113091228   12.86720492490005
S         3.04000124190098   14.98192169620725   15.43591313708733
C        -1.26074373302660   14.73590112999040   12.44349480464516
C        -1.11803751778630   13.89497086513913   11.34218396250023
H        -1.35667679366336   12.84458357718532   11.45045494309054
C        -0.67923689814365   14.39084181552445   10.13060103579978
H        -0.57660854708446   13.73078445259950    9.28144966271467
C        -0.36779607587670   15.73653280838105   10.00709519960556
H        -0.02053959242571   16.12636610401413    9.06186668487119
C        -0.50228231673927   16.57834220690524   11.09788459487098
H        -0.26107220237734   17.62701353266595   11.00425657494848
C        -0.94549539727785   16.08360357074302   12.31290759587910
H        -1.04704770358592   16.74524857555563   13.16142958952900
C        -1.93057285513497   15.40551322925544   15.12267074429437
C        -0.74546826670170   15.86959602528772   15.69074669109312
H         0.19097991977780   15.36953478625181   15.46209211763707
C        -0.76601009864611   16.94279093593147   16.55851331866750
H         0.15504428928414   17.29295498561455   16.99995545810546
C        -1.97112187437142   17.55454453259015   16.86934935424168
H        -1.99139720546049   18.38829945115233   17.55567564356231
C        -3.15050306593478   17.08705105652653   16.31521543453723
H        -4.09028480336055   17.55467804796219   16.57106751506552
C        -3.13704344874289   16.01250659962200   15.44193236323940
H        -4.06205455372510   15.63665059571857   15.02871802670147
C        -3.45286137847969   13.40847370492281   13.63023476681482
C        -4.32837393225640   14.17980461300214   12.87054459879285
H        -4.00759823834732   15.14227553245694   12.49403786105181
C        -5.59912402991397   13.70767640626805   12.59606431762212
H        -6.28062750579133   14.30730692960040   12.01024045533419
C        -5.99958180059258   12.46960696259393   13.07401106277988
H        -6.99549255910134   12.10860316370137   12.86289773267672
C        -5.12432901260083   11.69194966841757   13.81587744899521
H        -5.43937799551733   10.72604605679959   14.18172344182965
C        -3.84880222784673   12.15389422174835   14.08839050369586
H        -3.15049422750909   11.54992063216299   14.67809091583492
C         0.40839532635309   11.63221593167966   13.28442120534033
C         1.33697520921983   10.30899141294362   11.76366560430452
H         1.43517526412697    9.45084090819323   11.13121018874056
C         2.15099503744496   11.37819456113429   11.92690454618052
H         3.08238618838374   11.62249568772719   11.45887265820997
C        -0.83071510690359    9.57046737846681   12.78310284640098
H        -1.13118537036469    9.61323729767859   13.84156424024692
H        -0.48621197019644    8.55917194931418   12.55445052721169
C        -2.01604452232711    9.94785340474566   11.89184334082611
H        -1.70068294327032    9.95442502181601   10.84445789027477
H        -2.34901389900495   10.95624172833058   12.15915514789044
C        -3.17984738299541    8.97803920366365   12.07198221248738
H        -2.84821852772266    7.96383822797581   11.83853160331596
H        -3.49512615823128    8.99322380029273   13.11637724151343
C        -4.35619921728419    9.34697482337329   11.17702251828311
H        -4.70218574277360   10.35415033464418   11.39935485766172
H        -5.18214269712947    8.65718020312877   11.33027153574052
H        -4.06724914585079    9.30638816585261   10.12885235038293
C         2.09203911815095   13.43257898644629   13.36405990525352
H         1.36720366471758   14.23516389000778   13.16685882810307
H         3.01167109836648   13.65221064450181   12.81476341761954
C         2.37820837649052   13.38518557325917   14.86974666893258
H         3.09336471704273   12.59913995696540   15.11650653986048
H         1.44494067687455   13.21509515541262   15.44556652104462
C         5.61165360216318   15.93877516602112   15.54711551029557
H         5.27787188025394   16.83565101406679   15.03068288309117
H         6.67032168981813   15.78968509673048   15.34533243944265
H         5.47535345472204   16.08663493661275   16.61543822839130
C         4.82003464796250   14.73381983476604   15.07882989661207
H         5.13113416182086   13.83166295373120   15.60675700705085
H         4.93276600380437   14.58778460516820   14.00371900074397

