41
CSD_code = YOWHIB | q = 0 | S = 0 | Stoichiometry = C10H22Cl2N2O4Pt | MND = 6
Pt        0.71947413204580    1.33047628328200    2.42684332626061
Cl        0.09100119343588   -0.77719923143132    1.78364841504564
Cl        2.47735892857440    0.56972715178845    3.66983893431230
O        -0.41211601983814    1.09224150088944    4.14479496896918
O        -2.39479489789912    1.75930034538454    3.37572007305387
O         1.97135868600286    1.42203555366410    0.77727677792897
O         1.36228217713786    3.50189622489268    0.32929586796347
N        -0.89738542875542    1.98612800913815    1.17915961633811
H        -1.71271351906138    2.02921217092751    1.82415666436000
H        -1.07273624735952    1.27588348425906    0.47077802473293
H        -0.70526983356692    2.88240918447508    0.73570786988643
N         1.41228268596634    3.28233179040901    3.07209993984238
H         2.37457945684666    3.06109426910755    3.34496341788814
H         1.43494881607442    3.83815742113151    2.20588005667743
C        -1.67092309376114    1.26555026520120    4.23614067014248
C        -2.24598481959726    0.82263265693419    5.57070567554386
H        -1.46087516520765    0.76375859168295    6.31742944001438
H        -2.68108616895892   -0.16467744649305    5.43197307956757
H        -3.02918868538458    1.51129380625065    5.87432307621120
C         2.00603125527943    2.48209259099608    0.07524023253172
C         2.91746368727401    2.40583247482465   -1.13344592913481
H         3.48855833140257    1.48378875211527   -1.10910855782580
H         3.57949374397939    3.26784180839978   -1.13518780005925
H         2.30675142594080    2.44030617928540   -2.03281488183597
C         0.76641699912054    4.03371827124659    4.15416851612885
H         0.59046051660056    3.33749454151366    4.98230349592700
C         1.69056122438680    5.15809118758514    4.63456862061767
H         2.63438995972616    4.73612745015157    4.98670833198719
H         1.90554776089741    5.82837010276037    3.79847642740541
C         1.02517813065955    5.94681016212216    5.75932808611731
H         1.68885215885111    6.74925063263366    6.08538581027823
H         0.85485739306837    5.28554140295859    6.61112573698545
C        -0.30609617635942    6.52519957043042    5.29119225667900
H        -0.12942973353500    7.23314517911513    4.47848490612917
H        -0.78254411715965    7.06754441825933    6.10921923273339
C        -1.22461918465361    5.40989028130882    4.80294912586475
H        -1.45139463691615    4.73583944681402    5.63130327412866
H        -2.16655410482569    5.82849093339820    4.44651078763310
C        -0.56120481753663    4.61696459182780    3.67944845588493
H        -0.37875086524537    5.27362802920208    2.82506083167269
H        -1.22898114764332    3.81647996155060    3.36214714541109

