83
CSD_code = YOWJAV | q = 0 | S = 0 | Stoichiometry = C29H40CoN4O8P | MND = 6
Co        2.05283858416177   10.27957750039636    8.25354522361411
P         3.73223559076626   11.81314818782018    8.46572865689679
O         1.97530826905162    9.51314596254542   11.02896862973978
H         1.31372689774555   10.31557874870907   10.89951887892577
O         3.61153307656935    9.14529754868132    6.21021923241906
O         0.63201999325161   11.51394100716977   10.32577390709128
O         2.01617550329741   10.94928606265531    5.42862520359983
H         2.66297147049437   10.15154696771331    5.55845998727271
O        -1.42600895413941    6.92102013113872    7.73201516703909
O         0.10745435647699    5.30915073183808    7.50703971828452
O        -0.09372336660753    8.79842892865989    5.80683265356243
O        -1.28352337258695   10.18195531298201    7.12007467481244
N         2.54856105583997    9.36840016327055    9.81207362978127
N         3.33020087122169    9.14696821444912    7.46543122194732
N         1.54140174116069   11.18952643413666    6.68330512235580
N         0.84551505939967   11.47529862592021    9.05465359146830
C         3.53776874196588    8.54609927425611    9.67176042093701
C         4.00790662766346    8.43186683049032    8.32249137850196
C         4.13372548733436    7.76920635653764   10.79814512049343
H         3.54377638614285    7.92356478990183   11.69745120777756
H         5.15339826762636    8.10680469117345   10.98122269885907
H         4.16287293517605    6.70844880675968   10.55774264896945
C         5.13602130441296    7.53412929470509    7.92364045232843
H         5.34410948182422    7.68761678516872    6.86665819134206
H         4.87073583412831    6.48895001115376    8.07831228880318
H         6.02916753989408    7.75121760337632    8.50758343833211
C         0.26620954358402   12.29486355504032    8.22854813644724
C         0.65818774415346   12.11702239018217    6.85969038106602
C        -0.73086928999666   13.31878606106834    8.65811233533186
H        -0.81837819171664   13.28555004955437    9.74150062756842
H        -1.69948653431024   13.09352709324547    8.21631021339950
H        -0.42147049256005   14.31644095692296    8.34882651558339
C         0.05447706948922   12.91594473487870    5.75624921554531
H         0.53722060102566   12.67261452543844    4.81341795106294
H         0.14769456651488   13.98098182907326    5.95792681080684
H        -1.00444494030380   12.67021086656632    5.69207756541675
C         0.52038062820929    8.92438810131843    8.07553700738196
H        -0.04612706652022    9.00447200864097    9.00998930793566
C         0.93799847391492    7.47384405387734    7.86309794374377
H         1.53345817841881    7.35369283291179    6.95672982330475
H         1.51581333430630    7.09038137014719    8.70586452189740
C         3.09368462776124   14.39737380716377    9.44160288476525
H         3.31204317646151   14.03009671366438   10.43215162012210
C         3.25905551257313   13.57236634781694    8.33512114469981
C         2.97992281774883   14.07824121367297    7.06632194840417
H         3.09757012482385   13.45435443831901    6.19293902382784
C         2.55049152431234   15.38293534431783    6.91111284791823
H         2.34349876114941   15.76446695944067    5.92168045407595
C         2.38319020464875   16.19742153659392    8.01893042615525
H         2.04004346203521   17.21417135996940    7.89810058488301
C         2.66010253281725   15.70157218887933    9.28128930343005
H         2.53603214143608   16.33193259814576   10.14929955064321
C        -0.27524009878310    6.57811766174703    7.70085549482119
C        -0.93990318022769    4.35724116642391    7.31021333972349
H        -1.56073313910121    4.68557572199915    6.46887456062569
H        -1.57036648268790    4.33432674505308    8.20644135815049
C        -0.31383429904827    3.00219207635184    7.04007563536903
H        -1.09485561468769    2.26504341814026    6.87767255759239
H         0.29501164605689    2.69549099145792    7.88631587618012
H         0.31854794561583    3.05210131105493    6.15773582639658
C        -0.39420577785798    9.36964302856271    6.98828170898451
C         4.63314493494877   11.70903205816547   10.04393142636833
C         3.88631529514817   11.80883333321541   11.21872488486611
H         2.82044862523457   11.98067204201655   11.16827563395335
C         4.49661536357942   11.66529101059072   12.45012090789013
H         3.90672130680079   11.74110109255229   13.35096348217905
C         5.85607156694358   11.40926744477159   12.52567501193312
H         6.33328409311698   11.28897168881988   13.48686602055555
C         6.60092423150259   11.29905441552193   11.36388369391397
H         7.66060096058261   11.09457036607838   11.41821459217104
C         5.99570343866143   11.44411767969522   10.12732600636324
H         6.59410094681345   11.34870673825419    9.23447027260172
C         5.04866932922802   11.73038461059426    7.19423226741179
H         4.58947770566788   11.76121460965379    6.20759562575072
H         5.58025399926640   10.78432331413809    7.27816532370538
H         5.73606834030762   12.56879128856547    7.30613814873527
C        -1.92314282179618    7.95054840188627    4.47543262642409
H        -2.59648569495560    8.19693266952229    3.65894475189187
H        -2.50066397535935    7.78806111537387    5.38267888932155
H        -1.38837705679318    7.03481217713713    4.23366967620148
C        -0.93860085514984    9.08951686686363    4.70193525546255
H        -1.47614214210147   10.02154469693001    4.90567068683015
H        -0.27687648315451    9.22249235037579    3.84151696708839

