39
CSD_code = YOWKIE | q = 0 | S = 0 | Stoichiometry = C14H16N4NiO4 | MND = 6
Ni        0.53068144533477    1.70605336471795    4.63287133098620
O        -0.99310229078220    2.76932798452418    4.61538342370647
O        -3.17422455394828    2.85019629370419    4.98745475842867
O         1.65762582555130    3.10800871835745    3.91627045088009
O         3.09392504251876    3.76427441673204    2.37900992780192
N         1.39058248098979    2.39454807492486    6.70560129241287
N         2.12048515066562    0.70268094807230    4.74818964066061
N        -0.69538568132396    0.36380425555517    5.53844626881905
N         0.25582169587615    1.53351544957266    2.24563447638076
C         0.95745635372928    3.42999843166754    7.40624581227037
C         1.78940272204857    4.45109995515976    7.84444093735651
C         3.13753228717014    4.38183725683594    7.53810610690222
C         3.60502038046522    3.30067730256765    6.80792139193903
C         2.69721742796886    2.32973558460096    6.40174915173808
C         3.08053552915454    1.18901744176314    5.55194187488012
C         4.36104724183898    0.64188450287422    5.55806714310257
C         4.65970575614049   -0.40337525429808    4.70381731079878
C         3.65991452528783   -0.89345548597872    3.87770744318384
C         2.40553893422161   -0.31180915395632    3.94100102819377
C        -2.12015661709851    2.25562403789588    4.90689801497054
C        -2.07058032072850    0.71234120611515    5.14622674843271
C         2.13503218520300    3.10444904288823    2.73876579096127
C         1.46122747337371    2.15701857887777    1.69682448873665
H         4.64163590993313    3.24310826489746    6.51773680494284
H         3.81538298604843    5.16296871084179    7.84804847879671
H         1.38583607442525    5.28236830611986    8.40015062978135
H        -0.10284833636565    3.44840714354591    7.62247654920240
H         5.10956790144702    1.03397360426282    6.22747292204300
H         5.65166583702234   -0.82804685167171    4.68157778152003
H         3.84818890936305   -1.70521431393272    3.19355496654070
H         1.59877653705960   -0.66647075525783    3.31240636701330
H        -2.31376871498652    0.22925772543992    4.19666494910112
H        -2.81450522500364    0.41456608081467    5.89324979313064
H         2.19574668765916    1.38479658948292    1.44841053927239
H         1.27236621878774    2.74944688573619    0.79324686072716
H        -0.54288075530739   -0.64025318348784    5.46552315396021
H        -0.56254902580523    0.62415039717082    6.51797226730013
H        -0.47911744335946    2.24353774086949    2.27162169847000
H        -0.06550055458079    0.79105070199655    1.62971142465369

