36
CSD_code = YOWPOP | q = 0 | S = 0 | Stoichiometry = C12H18BrN3OZn | MND = 5
Zn        3.32074978557698    2.23549098883221    3.82465224432094
Br        3.29802623563734    0.21999595765612    2.70136964328595
O         3.26229172719742    2.53310622158994    5.68551816458287
N         5.57860154189625    2.24463541113831    4.04548056820061
N         4.00766273031192    3.62885482853523    2.18031788964749
N         1.48934022892177    3.08847558801617    3.54117293345776
C         6.18658757782121    3.25766416758365    3.19180859066077
C         5.40105917358009    3.31496595494200    1.88328994060842
C         3.15484056549054    3.55834789920700    0.99443316502275
C         1.73706947904873    4.03914397339470    1.28503907859555
C         0.94713419876011    3.10166556381996    2.20504546118338
C         0.79884318018754    3.60741225096821    4.49270226427486
C         1.16367051420351    3.68604763963497    5.86363834058947
C         0.26005241590695    4.32244865656663    6.73806904407512
C         0.50613253118395    4.43496790928482    8.07910619771536
C         1.68592725715002    3.89563206072282    8.60283405533630
C         2.58612318688882    3.26778961324829    7.78730425110810
C         2.37202548763616    3.13525390996743    6.39051495238604
H         5.88110906094191    1.31684228608939    3.75519583442905
H         5.84858249799013    2.36220171153219    5.01601537940631
H         6.11612987540678    4.22516303962617    3.69723234654563
H         7.24394758920752    3.05400625014185    2.97813921901272
H         5.42798393755627    2.33265873379527    1.40328839544096
H         5.85201217311267    4.04943432423976    1.20093059960190
H         3.12919652835496    2.51767468203777    0.66011405341418
H         3.58035559161169    4.16796226703834    0.18172556761421
H         1.20016747845782    4.11206506252777    0.33794929486087
H         1.77060827314233    5.03675542602439    1.73302693279835
H         0.99954717773725    2.08553914635232    1.80264224194523
H        -0.10550960538287    3.41878602895841    2.21878786184046
H        -0.18464596397080    4.03052042911623    4.24689328315865
H         3.96581073155298    4.58018549749163    2.54375526327148
H        -0.65170358665643    4.72984656856049    6.32083772280357
H        -0.20033054938391    4.92796770405414    8.72921474503018
H         1.88370720856202    3.97574255706967    9.66247014061576
H         3.49589376435960    2.84364969023688    8.18638433315863

