73
CSD_code = YOWSIO | q = 0 | S = 0 | Stoichiometry = C23H34B9CoO4S2 | MND = 8
B        11.35107044488855    8.46988065287669    7.38970867924614
B        11.85946740995101    8.85167453427412    5.76108497249081
H        12.57532595235352    8.10578701973909    5.20398791081760
B        10.39178404819307    9.38422091521614    4.88412609525864
H        10.16955843972205    9.04530344739410    3.78013269534688
B        11.50031880165981   10.55718505520691    5.45364149657980
H        12.14460177087440   11.22772516541767    4.73345415971520
B         9.71410866228247   10.97915000165654    5.61464899692901
H         9.51115757800645   12.01925898158418    5.08152802158351
H         8.71247125810421   10.34581541892775    5.44000355969679
B         9.37488790080907   10.49841488340743    7.38931506497089
H         8.43991467520724   10.89369423566186    7.99203562688721
B        10.86707748521262    9.94526418872123    8.20145995822042
H        10.93436413814256   10.00697381289183    9.37167403358204
B        12.17649237016066   10.00475947497268    7.03695359795418
H        13.27206725823419   10.24345728856292    7.39019227917694
B        10.86308101575751   11.25410401631266    7.02107075443950
H        11.09708637620447   12.37176322670649    7.30846571066660
C        10.19540882043047    8.34695563803243    6.07969987266188
C         9.66705418250155    8.92587599513929    7.39752787907799
C         8.89966494964289    8.10604481447251   10.02716277421482
H         8.48938525474944    7.23129347491092   10.52981375753595
H         9.96748609693665    8.19467445998843   10.20330540760098
C        11.68804749090703    7.14454964742587    8.15185548604188
H        12.68445249754165    7.09640622944189    8.59104511972667
C        10.92561618528488    6.07254630088543    8.35436272895833
C         8.45030062549995    6.73087209608284    4.50906255749703
H         8.90927443320522    6.90389538615087    3.53487711515141
H         7.97382283720538    5.75062936146050    4.50361064088535
C         7.39329418423343    7.79134233648357    4.71488232175877
C         6.01230974427318    8.88500038313313    6.28774267837344
H         5.39762567298028    9.00627014476103    5.38994776167655
H         6.49599391719029    9.83972416959591    6.51581509458485
C         5.18516867999021    8.40315082282193    7.46517900854889
H         4.84779847250312    7.38291397976557    7.30033198441774
H         4.31592475561159    9.04577074774127    7.56983806974437
H         5.75898672419858    8.44940369706254    8.38611357936956
C         8.14124993668625    9.33969292004560   10.46773634107747
C         8.40897392050546   11.46264155078188   11.48995707981447
H         8.42220748254407   11.49180252091962   12.58393944281244
H         7.37574423395277   11.53698567508701   11.13708674564002
C         9.27634666705374   12.56388293269982   10.90207695104038
H        10.29874228640699   12.46456342060456   11.25603424871386
H         8.88579110626781   13.53058179943871   11.20598728863616
H         9.28124609650032   12.50213788223250    9.81665978286596
C        11.43712310113705    4.91064802364032    9.09327719745291
C        11.26947788129622    4.80145556284189   10.47317615602102
H        10.72059057510064    5.56669832506852   11.00392863922467
C        11.80959235911272    3.73302552030752   11.16367539232835
H        11.67351021407471    3.66064510164886   12.23331019746681
C        12.52778569574507    2.75844176851163   10.49086418304586
H        12.94588815845379    1.92250320951670   11.03175830086642
C        12.71425915634445    2.86552735224484    9.12170901617799
H        13.28456326407358    2.11405148985695    8.59483103788987
C        12.17622061818909    3.93165178154957    8.42757116925454
H        12.32129389195953    4.02140171262319    7.36057267637177
C         8.91421843099601    3.66541130961605    7.99736848407952
H         9.68636876730755    2.92446540884114    8.11405079378878
C         8.26905482486112    4.00915609799207    6.79144249283856
H         8.46785697570486    3.55992069175490    5.83007139425280
C         7.18493877425472    4.87509138486470    7.09749903817765
H         6.43055876304128    5.21342797281582    6.40761168591770
C         7.18780089654598    5.09568343697163    8.47628445954208
H         6.45136891356711    5.65551186227622    9.03008123378113
C         8.28657447338966    4.38393414525264    9.03806290379967
H         8.47530844707892    4.24913325186101   10.09130568345794
Co        9.10100800775813    5.78835870714903    7.66693750095860
O         6.90155958086018    8.39311086814399    3.79854598878152
O         7.04389420417053    7.92994750271711    5.98926934606042
O         6.96615815896027    9.49873262643817   10.25560399584879
O         8.93383682811019   10.18701097270304   11.10104666450868
S         9.82545852164620    6.62426086789982    5.71793619903598
S         8.53777767572666    7.84045233812201    8.25257283703250

