69
CSD_code = YOWWAK | q = 0 | S = 0 | Stoichiometry = C19H31B10CoO6S2 | MND = 8
Co        9.06201181187009   11.24573438590266    3.12597631343465
S         9.04418202097624    9.85876492917092    1.41165331028502
S         6.85102930662075    8.71204049441511    3.65432454637170
O        12.19443702936193   12.08436931769709    1.25032645084214
C         9.17018318846597    8.12043929001516    1.91226319268397
O         4.17450331799741   10.59586672977591    3.14090415332024
C        10.51621677877749   10.64860692741219    1.98947651027354
H        11.31137840207693   10.00069388858797    2.34189288864753
C         7.98832345324184    7.54055000777343    2.87071480586967
O        10.26427003651154   12.05582094249894    0.09272036327423
C         9.77237027945827   10.10079187187460    4.51886946133886
C         9.91339598276402    8.77314452888839    4.57244985798909
H        10.31933139889792    8.37859653796123    5.50428679685082
O        11.29324643606725   11.45790277200707    5.78169917804435
O         9.36380360629207   10.78472866444488    6.71649819050175
C        10.94914058571070   11.66103085920411    1.01454814368038
B         7.92098017160916    7.17178037753905    1.20150344333332
H         7.14254589405535    7.75062968667506    0.54487179128129
B         9.60899173287826    7.67524887753771    3.50215522661489
B        10.63830616640991    7.27066289945102    2.11062659510796
H        11.64904967267810    7.84743852245390    1.96786538212723
B        10.28095087434260    6.04818232183792    3.34844480745373
H        11.09931914254346    5.66425273774854    4.09575724692289
B         8.58316127268435    5.55319224665526    1.03797830918322
H         8.22345874422103    4.83560231428147    0.18275858865037
B         9.60506957561647    6.97663538999261    0.71056969388862
H         9.91971204442077    7.40053988965858   -0.33659205155902
C        10.24378148788566   10.86792654003554    5.69657443913163
B         9.01008805252743    4.97579926194962    2.67950170290272
H         8.93923470643778    3.84278025695385    2.97471110309144
C         8.98171097589738   13.05568116466356    4.18254897116450
H         9.62480698848704   13.43766856229076    4.95937283951952
C        12.68921078274630   13.10935824092792    0.39025726504617
H        11.94163620772826   13.90813344840945    0.32243266924318
H        12.82726083585314   12.69188438747373   -0.61422719474822
B         7.54839938289755    5.95521471955249    2.42789670942039
H         6.43239531262995    5.63510668646463    2.59535095125712
B        10.28083884794879    5.60709442848513    1.60835348708542
H        11.11353382629558    4.92457810154636    1.14235397984325
B         8.58482224656729    6.25843895970331    3.82980958993372
H         8.13328512210187    6.14665019846296    4.90491499542106
C         7.96459215745087   12.83553908477286    2.15700611541972
H         7.71973985675164   12.96607455170633    1.11550620773750
C         7.77999865038122   12.31119591057802    4.37838905728048
H         7.37438847697734   12.00649155826141    5.33034321719789
C         5.41769227507349    8.72213225915295    2.49691942054166
H         5.64208799335259    9.36161544779386    1.64469554610257
H         5.20864071484418    7.69719920829865    2.19925394614008
C        13.99779384154259   13.61987594383696    0.96212413880583
H        13.84002861313420   14.00393073788543    1.96618248256642
H        14.38849959242036   14.41312657384682    0.33132865044227
H        14.72281691894730   12.81242192807344    1.01220964632447
C         7.16330111230574   12.16355223369914    3.12341388008680
H         6.19009572438622   11.73769979283155    2.94105403901838
C         3.18014043908087   11.28618660033148    3.90397528889913
H         2.30127733182441   10.64132136719109    3.99890793600501
H         2.93299866294391   12.17244305037845    3.31612601996570
C         3.71621541770075   11.66547613669175    5.27613253085435
H         3.96971645033644   10.76886123982002    5.83685827585096
H         2.95810457702446   12.21952440659111    5.82174157229083
H         4.60533446112020   12.28334815492291    5.17600062592738
C         9.05658571088143   13.41396764588233    2.81542396372983
H         9.79629915896430   14.06041293930812    2.37419490070181
C         9.72249721378900   11.45464680373065    7.91424141429155
H        10.78388131785474   11.30986169987542    8.12587617270033
H         9.11006764510286   11.02646227442623    8.70425596609685
H         9.52428152167826   12.52556881735811    7.82283299354391
O         3.51248897256534    8.60989042343593    3.95928309757000
C         4.25416148900966    9.27211084094631    3.28742818917773

