79
CSD_code = YOWZOB | q = 0 | S = 0 | Stoichiometry = C28H45BrFeN4 | MND = 4
Fe        3.21428105428748    4.28101175117129   11.48512099014637
Br        1.14277340776903    3.42092659905485   11.25220780470784
N         2.90890947741960    6.29028452188808    9.19130823607793
N         1.82022206542353    6.88456500509622   10.95984228357554
N         5.05661008485830    6.34727055926930   12.72205007425982
N         4.06215362040720    4.98099059332308   14.07879150589326
C         2.68266356224139    5.94645203740551   10.48184253686474
C         4.19686540573615    5.29145505595535   12.75784150469005
C         4.90094740336656    3.52804397557320   10.96187002197811
C         2.18862236930728    7.41786003602680    8.85399077468019
C         1.50911602412345    7.79859012641997    9.97050808895534
C         2.18618746920918    8.07237960945604    7.51671231903217
H         1.34444004684806    8.75631494623807    7.44793011303302
H         2.08694720861654    7.33963747646423    6.72037870639156
H         3.10290413944700    8.64000114786606    7.35392025607831
C         0.58397269270284    8.95911763990962   10.10691906306182
H         0.85380592059996    9.72676688754294    9.38517324151200
H         0.63238044465500    9.40023477319433   11.09746447257618
H        -0.44645239797484    8.65799871488752    9.91353749911446
C         3.74471666686816    5.46333927648707    8.34214794420671
H         4.26658968916662    4.80603597288102    9.04905574023006
C         4.79631514923643    6.25545980235940    7.56896353771016
H         4.38012665576315    6.74165418156315    6.69177785823021
H         5.57574598320061    5.57388979659070    7.23857436803136
H         5.25039624685539    7.00677607182653    8.21008038799081
C         2.88999711566230    4.58765248372098    7.42632196673593
H         2.13951778216154    4.06555874777380    8.01543997066879
H         3.51955996076899    3.85255671975872    6.93258000805249
H         2.38129675700103    5.17343741576370    6.66445426428995
C         1.29144030696118    6.82337240045304   12.31169050647029
H         1.68197886730919    5.87660482314993   12.70901202252196
C        -0.23311034957121    6.74417080751041   12.32792261378515
H        -0.69551329974193    7.69222182655329   12.07213899917019
H        -0.56674706282375    6.45880412820283   13.32229540012646
H        -0.56754734777865    5.98191171514619   11.62913890776438
C         1.82548326482066    7.93797200475225   13.21176014685352
H         2.91001524993450    7.89938984862489   13.25486276970520
H         1.43805484309888    7.79661359126684   14.21779575240505
H         1.52484181251009    8.92526364677056   12.87201996158698
C         5.43937703789342    6.69350780155582   14.00827522366859
C         4.82427528187093    5.82835580694634   14.85800742555633
C         6.35746173328684    7.81050611697023   14.37042037113937
H         6.16469638585008    8.12258445648270   15.39415877865190
H         6.21057733586533    8.67251945164747   13.72660956880308
H         7.40100157076415    7.50101308114926   14.30128547352810
C         4.89980910656398    5.79223589755424   16.34489843725715
H         5.74101463642122    6.39154932576277   16.68282990966174
H         5.04352762184872    4.77859707801971   16.71007709104995
H         3.99072684585490    6.19473092363986   16.79321574386237
C         5.55785479672783    6.88909946450843   11.47377898533290
H         5.17736350475813    6.18620094357552   10.72637370359797
C         7.08539518549473    6.89605590570388   11.39435304792113
H         7.51791076101017    7.72016539141702   11.95374224064289
H         7.38400150240126    6.99976479388666   10.35446556951622
H         7.49310770748709    5.96159228456598   11.76661472485511
C         5.00130866731805    8.28067050552997   11.16531257327636
H         3.91752979245257    8.26860840552597   11.16612258120259
H         5.34039088816476    8.59128263553203   10.18033605493147
H         5.34034138019509    9.02218945131357   11.88405851278327
C         3.30323220356775    3.81131297029042   14.47986049149077
H         2.75040991214787    3.51457580603710   13.57142467552549
C         2.27624537720335    4.10957227145264   15.56880573519292
H         2.73374749936434    4.16863681625530   16.55193363356900
H         1.53330344296806    3.31647563183995   15.58753007623480
H         1.76715804145471    5.04714648528342   15.35656065163956
C         4.22996064898034    2.65060097902195   14.83966953100950
H         4.90820116021564    2.45678055600120   14.01041094289194
H         3.64132014224817    1.75572346144567   15.02326091560129
H         4.81744101822991    2.86440587683757   15.72918460035268
C         6.16893352490700    3.43341935650835   11.53407840375076
H         6.46481056456861    4.12844485360036   12.30818788895150
C         7.06962330420173    2.45043418664198   11.15704439862255
H         8.04373910498505    2.40578539495159   11.62840693555023
C         6.72936571805446    1.52376786769864   10.18782250819557
H         7.43325432438819    0.75966719847955    9.88923399961956
C         5.47111979407004    1.58098874418424    9.61043536468952
H         5.18515507680879    0.85624219941389    8.85942301661655
C         4.58145806064361    2.56708754566946    9.99430398840850
H         3.60284104830107    2.58451535921782    9.52014360567559

