81
CSD_code = YOXFUN | q = 0 | S = 0 | Stoichiometry = C32H43Cl2N3Pd | MND = 4
Pd       20.46919688028705   -0.13358363831725    5.72390031560347
Cl       19.06626083434332    1.39346392369599    4.76588253549861
Cl       21.91613131339423   -1.61179437508515    6.69489859931443
N        18.66445538548641   -2.27072610428631    6.64757743993060
N        18.33161134323050   -1.79762287694146    4.55740208461499
N        21.95883007231645    1.33833602937500    5.81476180044246
C        19.06343285260522   -1.50047776797260    5.63365089531451
C        17.47702348199588   -3.05318501228520    6.30690908713634
H        16.59376503618472   -2.58030150006599    6.75726390523592
H        17.54856105495996   -4.07447386310112    6.67650349778572
C        17.46714917046469   -2.95528179676836    4.78765401877084
H        17.91516417673686   -3.83861928190102    4.31249542181209
H        16.47375681488974   -2.80450031603488    4.36967923982148
C        21.65393441711849    2.60398968305391    6.10123366354517
H        20.60606719394166    2.82907996654849    6.25728252891400
C        22.60480188608357    3.60804576894302    6.16623717635293
H        22.30186107031091    4.61561650675392    6.40364965455856
C        23.93187923100373    3.29587373148077    5.92173141875750
H        24.69792826056823    4.05574613561174    5.96365893345762
C        24.24835600122572    1.98090963321664    5.62340943031043
H        25.26551949770577    1.68193462381477    5.42514441264355
C        23.23612715803182    1.03718273230376    5.58206083656495
H        23.46284612409021   -0.00281889359922    5.38202139596542
C        19.14682254349141   -2.28056159214459    7.98515014169739
C        19.79190077519513   -3.43003783666971    8.45962287763705
C        20.08507474788731   -4.61720572847723    7.57037589794067
H        19.80889978625771   -4.36690194922833    6.54218433482571
C        19.28383392471696   -5.84220568505361    8.02398843305683
H        19.61600025114744   -6.16902778336505    9.00618395246983
H        19.42683636678867   -6.66379748928125    7.32506271267368
H        18.21862440185557   -5.62383195986352    8.08902417151418
C        21.58112137355830   -4.93807737072887    7.55850517008660
H        21.92311896105111   -5.27143906401825    8.53439194463461
H        22.14066380962778   -4.05021385613125    7.27716975670314
H        21.78360604786578   -5.72680391396632    6.83664566663310
C        20.18805098693382   -3.46089835762639    9.78860150236915
H        20.68784945044563   -4.33565070489873   10.17427912652600
C        19.96609619356240   -2.38371579383146   10.62404292969953
H        20.28672682691013   -2.42420646418936   11.65470588143699
C        19.34671412705478   -1.25104127565926   10.13719822849989
H        19.18890372280621   -0.40906565745109   10.79368063179041
C        18.92221301909438   -1.17852066496892    8.81581839624950
C        18.25369673445145    0.08548010626044    8.32341191554412
H        17.99639980028725   -0.01439578016962    7.26035387925370
C        16.96218719610324    0.36555446544139    9.09435640967717
H        16.27781950034178   -0.47729777802805    9.01604635011308
H        16.47274193443451    1.24734129733465    8.68737160186723
H        17.16490864449960    0.54091157430587   10.14811047763830
C        19.23469321089212    1.25831979125707    8.44169186461584
H        19.41597300728836    1.51757354498350    9.48275774962231
H        18.82985903154074    2.12913951870220    7.92858989945455
H        20.19605600381465    0.97344893344636    7.98456839278167
C        18.45816481157350   -1.28072672570823    3.23862621343269
C        17.38269767057928   -0.57514036955653    2.68312256129743
C        16.13626068364590   -0.24655540920092    3.47326635624733
H        16.28774770791727   -0.54676032666789    4.51381118569169
C        15.87264371750978    1.26062377591238    3.48483482700385
H        15.64578654213821    1.63238593830332    2.48943237390584
H        16.74981947559405    1.77954790778977    3.86104763533356
H        15.02765162099371    1.48162643829231    4.13387931775701
C        14.92395329602303   -0.99006272534610    2.90194078961744
H        14.69186143677366   -0.62420786136369    1.90477916462520
H        14.05330419951789   -0.82994862280991    3.53469101049124
H        15.10692814379124   -2.06134755005460    2.82815242382906
C        17.48193313888540   -0.15368656140560    1.36513934804683
H        16.66482437115900    0.39064350970703    0.91810463376474
C        18.61491175396076   -0.40876707655509    0.61770794047630
H        18.67524937414402   -0.06924554504224   -0.40595414281309
C        19.67418031590606   -1.08718551624277    1.18442479282023
H        20.56087282011158   -1.27188561267867    0.59747921552011
C        19.61598173309676   -1.53947144783432    2.49733168624060
C        20.80630230437204   -2.27109680073554    3.07580981461898
H        20.60565153855878   -2.55352802158123    4.11774293097157
C        22.01868230576181   -1.33182884142624    3.08877379547778
H        22.37724092999831   -1.13648188403841    2.08010204091168
H        22.82391016653197   -1.78074669987832    3.66803629208780
H        21.72689450708296   -0.37112181308913    3.54409324577803
C        21.10799563307993   -3.55240106340261    2.29607313439091
H        20.23725732449815   -4.20550560213523    2.27862008557128
H        21.93030852669420   -4.08518226809911    2.76804804440524
H        21.38693231332594   -3.33140905961053    1.26868469313059

