44
CSD_code = YOXGOI | q = 0 | S = 0 | Stoichiometry = C17H20Br2N4Pd | MND = 4
Pd        8.19940360164451    2.96497442406899    9.24102727284091
Br        6.45867387398338    4.64943969568768    9.61933647247812
Br       10.10966604235058    1.53169773463590    8.69745136071074
N        10.16551481105377    5.02234659543123    9.72644407824085
N         9.56984881321893    4.26108267117765   11.61923965694372
N        10.85184635304965    5.73477668857868   10.63682236587953
N         6.97037492266465    1.94766535761107    8.00047699526181
C         9.37887776256041    4.10963843435640   10.28824277545568
C        10.47868998617760    5.26113582362560   11.77923429929930
H        10.83440237603963    5.60796322802819   12.72731980429473
C        10.28859578663569    5.29853462627127    8.30655753023756
H         9.59615159827227    4.59840540161455    7.79014959484767
C        11.72282544068107    5.02995978896978    7.86708626284628
H        12.40388448993914    5.65770182658573    8.43648676909213
H        11.83464842325987    5.25130329588443    6.80972772956608
H        11.97698162107069    3.98500462028516    8.03340249944253
C         9.85217566005736    6.73618569130535    8.04580475754783
H         8.82150432203681    6.88197703777616    8.36461112478820
H         9.92325302748395    6.95906001138857    6.98509963938784
H        10.49213200138363    7.42045842519126    8.59751945915657
C         8.87476324853841    3.51173241430384   12.64718873418801
H         7.88031416807151    3.95353776976037   12.78865230021092
H         9.44399770422605    3.60095137600808   13.57621922271991
C         8.75523552893694    2.06976460118105   12.21444122000722
C         7.56595238318402    1.59807233336193   11.64941314198609
H         6.67933408116369    2.23133729946520   11.65492742340589
C         7.48978674136958    0.28028780625891   11.20866885201627
H         6.56263428632060   -0.10533357652082   10.80604505909508
C         8.59438716254607   -0.55130149933165   11.30153020711998
H         8.53697860222696   -1.56571543952024   10.93716063472884
C         9.77318823717057   -0.08043121338042   11.85283975228843
H        10.63701886642580   -0.72358294728524   11.91461347468744
C         9.85245864711773    1.22337887521351   12.31039814019212
H        10.77757496006869    1.59135163580319   12.73127637472361
C         7.31642657487058    1.87966234374163    6.71550442440947
H         8.30785130816409    2.24109402580348    6.45078344109424
C         6.47532654265716    1.36404458845752    5.74513985672966
H         6.79912091038822    1.33403760919942    4.71703637415667
C         5.22664388249359    0.89463610756693    6.11980697161733
H         4.54753933316022    0.48438443735743    5.38805673498719
C         4.86751293613892    0.97280474099254    7.45602565346124
H         3.90307206343531    0.63110675529842    7.79674941935687
C         5.76489547752843    1.51261731711592    8.35979705248394
H         5.49933544025167    1.61805126067882    9.40618508601145

