89
CSD_code = YOXLII | q = 0 | S = 0 | Stoichiometry = C26H54N5Si3V | MND = 5
V         2.61434790792688   12.66477749661287   11.16335585396140
Si        2.68980537282895   12.06792858970462    8.03621394582682
Si        5.57803408540267   12.11931957741519   12.55094833724775
Si        0.23175102317931   12.29773858762003   13.32395862817000
N         3.28179516954619   12.86680619104446    9.43988540303217
N         4.06060648137441   12.89647141523908   12.36866320999439
N         0.98301281439037   12.89787263177791   11.89910626135170
N         2.62496171310196   14.88629045303454   11.14870836925509
N         2.27350692853368    9.67013432772535   11.03299110011585
C         3.98869082231180   14.10932142820134    9.32532555936099
H         4.88360396246430   14.08056510600754    9.96458686655487
H         4.31619348180516   14.32197528724669    8.29963361164649
C         3.05045547002421   15.22561008602643    9.80324854524754
H         2.17928631199294   15.22990277648518    9.13965855416254
H         3.53168862821402   16.21808832127873    9.75400424503359
C         3.78262157164478   14.08905219389122   13.12351906793524
H         2.86144515098942   13.94363561049764   13.71125937903836
H         4.58734134983368   14.33106530464020   13.82964574099390
C         3.58326503056668   15.27548079299710   12.17009978917488
H         4.54676343036258   15.49219048611149   11.69878172382120
H         3.26062506708696   16.17578822519485   12.71747073304980
C         0.39489152277641   13.97230260656540   11.15884294503094
H         0.43018752845700   13.74632667096966   10.08264918839419
H        -0.65459183300377   14.16560487727766   11.42554127879156
C         1.24389486626300   15.22445015174030   11.44222401980461
H         1.14213073018641   15.45755037714537   12.50695745335203
H         0.89175292961974   16.09312849755336   10.86219756170544
C         0.85395408999740   11.55592258667166    8.26172797782712
H         0.66604508253901   11.28328545395118    9.29853159404292
H         0.61914930484891   10.69756800471285    7.64119069163726
H         0.16540409310428   12.34953269052827    7.98362961120703
C         2.78031479855802   13.16236788335046    6.45890303077330
H         2.30840822492752   14.13000093662018    6.60316912765281
H         2.28296325430024   12.67807019333720    5.62536338344843
H         3.80936754350608   13.33796328098298    6.16178798871921
C         3.71357622483344   10.48901041282851    7.66126919021496
H         4.76499886492014   10.71757474932813    7.51701481532731
H         3.35725783985869    9.99262817117019    6.76436647439281
H         3.63722145669183    9.78851748710555    8.48539285058678
C         5.73894480066947   11.15601470780421   14.21200967414731
H         5.71190319108361   11.83619732978072   15.05842918437130
H         6.67471175627993   10.60833342864299   14.26589507333433
H         4.92993119437113   10.44432171294649   14.34224813731960
C         5.84586655173700   10.94609796451835   11.06774430424924
H         4.95006618028779   10.92626178774916   10.45149497187299
H         6.07022522950532    9.93572109468002   11.39211344912756
H         6.67486858274287   11.27541923537794   10.45033238639127
C         7.02499700714881   13.39181705886975   12.56798754615295
H         7.07457407907716   13.95711284488140   11.64141600205090
H         7.98093348778675   12.89495357491869   12.69795647402990
H         6.91985005276887   14.10371254914583   13.38141951587245
C        -1.21527735560726   11.12188149182251   12.85777989005005
H        -2.04459407557480   11.67044373828072   12.42053356215680
H        -1.59621747103567   10.59094520658528   13.72430369947141
H        -0.88841464833288   10.38636368074624   12.12798715113336
C         1.54092901820147   11.36287884260223   14.35289864640183
H         2.48380165707325   11.32686909940619   13.81094633586559
H         1.21692433347973   10.34745253422214   14.55511822926260
H         1.71429033045245   11.84039628523713   15.31191595198070
C        -0.51696966522232   13.69732768641426   14.41030439699661
H         0.25041993895200   14.35117779972266   14.81567466316598
H        -1.06790109575963   13.28372093793588   15.24869126474382
H        -1.20802314436477   14.31304143909770   13.84174646370207
C         2.50223789439604   10.82987514331835   11.14518509582633
C         2.47126908159367    8.33744019774639   11.48615067450590
C         1.10319940496523    7.72020922127771   11.80145447354864
H         0.47291805815957    7.75763978208653   10.91070423891907
H         0.61773819215070    8.30564849857573   12.58500559459799
C         3.14573842914685    7.53307670565874   10.36771974441865
H         2.52873242665423    7.57119247777596    9.46778934120935
H         4.11372868696387    7.98232087637455   10.13658713668305
C         3.35124226660301    8.30289002801982   12.74084201693986
H         2.87456207146215    8.88859227191220   13.52796632669191
H         4.31304382011342    8.76561745121088   12.51481685383118
C         1.29487806971760    6.27361505630900   12.25635440430894
H         0.31689635574634    5.83473465761458   12.48349238063986
C         1.96655071239975    5.47170286471334   11.14208675976936
H         2.09159341398294    4.43305253640575   11.45585278755279
H         1.33885539135971    5.47824352124431   10.24841722882233
C         3.32944794222212    6.08652500700325   10.82558772536252
H         3.81073840010176    5.51455805145454   10.02463932914418
C         4.20875786930264    6.05415182972567   12.07494554070079
H         4.36002930308338    5.02116568825355   12.39600786781797
H         5.18765676201885    6.48300425348213   11.85109815172642
C         3.53527988554086    6.85370962269638   13.18955587575718
H         4.16399566033866    6.83085816535827   14.08643873216181
C         2.17118401161719    6.24185772347258   13.50806322751416
H         1.69115302887656    6.80425043540743   14.31173636876042
H         2.29510462989823    5.21118598097428   13.84773104110354

