63
CSD_code = YOXLAA | q = 0 | S = 0 | Stoichiometry = C15H39N4OSi3V | MND = 5
V         8.61257277487570   17.21249024421606   12.18402818960756
O         7.65497925815878   18.37445110987366   11.95101014179427
Si        6.93997083421671   17.23341489751872   14.76254250128577
Si       10.52586149395303   19.59480829696466   11.84619929634978
N         8.45178162050620   16.93591672500174   13.96504660526452
N        10.19443873597632   17.90422403132265   11.64192574796789
N         7.91461040404272   15.92321802066706   11.12320171657315
N        10.13653511140457   15.35974246681710   12.55378921653516
C        10.02853762203413   15.10390813121924   13.97661125741240
H        10.96920090477198   14.72123689619222   14.40742555658771
H         9.24378990602752   14.36117510970197   14.15076340989808
C         9.59989157047853   16.41641271764448   14.64550332675174
H         9.40185611280577   16.23646000951704   15.70871212128310
H        10.42743079315170   17.14164468536900   14.57915113620006
C        11.42183520742379   15.88086115495743   12.13172983883178
H        12.07782577210281   15.09656144805573   11.71780323663811
H        11.92727866498024   16.33344870354463   12.99050431271135
C        11.15046102737892   16.98498149486566   11.10155962261613
H        12.09339173456742   17.47862713056600   10.83848906911154
H        10.74557579178426   16.52946872415887   10.18293869292670
C         9.60949748579685   14.30425676523352   11.71129640262102
H         9.79764788045200   13.30041359798267   12.12809431349441
H        10.08093464481860   14.36061276338609   10.72520623932083
C         8.10780469886481   14.56607231304018   11.53773223853366
H         7.69380974500168   13.85215685476616   10.81596817436349
H         7.59876108595048   14.39830027090289   12.50106707674227
C         6.53499055227461   19.10336124669334   14.76587199990930
H         7.12929569753557   19.65981983931145   15.48506557243725
H         5.48892670114356   19.28248435050698   14.99137848590873
H         6.74011766079025   19.49732392298084   13.77312602258574
C         6.98450951733480   16.61241849935777   16.57638423186927
H         7.22844718270996   15.55684966136105   16.64113789272733
H         6.01195828287900   16.74845642956583   17.03464182965167
H         7.70375247530872   17.16119482807744   17.17515221984611
C         5.57295634184439   16.26735267066734   13.82882529119875
H         5.74096371552194   16.38309640260124   12.76014446194338
H         4.58612371270127   16.65459016759674   14.06080746287766
H         5.56986257232106   15.20627913954180   14.06683664032337
C        10.20941750790622   20.04860095015993   13.68136587206103
H         9.29486707723044   19.55525408631431   14.00381750634714
H        10.07989699041691   21.11863098690083   13.80737489940891
H        11.02010885480320   19.74006229093704   14.33723528871544
C         9.40148084385058   20.64519090413771   10.70902295335074
H         9.70610585695109   20.60585133624924    9.66703875428107
H         9.39193973022079   21.68687337088380   11.01228366652847
H         8.38698773974220   20.26060138639837   10.78445395646384
C        12.35641808019014   19.99199774000923   11.43493466523721
H        13.04641493375240   19.40951646855970   12.03707765469899
H        12.55810584317340   21.03824292660203   11.63265832526245
H        12.58576801460774   19.81035557117592   10.39024662294207
Si        7.10585267812507   16.35046914067921    9.64901706628453
C         6.72051365007218   14.79207141422305    8.59989135133227
H         7.61442316452769   14.21800613864553    8.37768658386542
H         6.28100418808511   15.08579261928226    7.65390835510079
H         6.01325563147006   14.13495255592061    9.09481858883975
C         5.46482569637464   17.26179763194516   10.02029102932250
H         4.68593712168887   16.59376429915807   10.37703730539493
H         5.08600486453263   17.77254812662427    9.14117161080986
H         5.65663803123365   18.00678854029145   10.78910254788748
C         8.27275118606349   17.48516579138995    8.63731400019545
H         8.73844621161606   18.19267584174217    9.32023300652572
H         7.72536311143935   18.04745009803726    7.88780731705872
H         9.05528769802845   16.93304806197762    8.12223951940774

