59
CSD_code = YOXLOM | q = 0 | S = 0 | Stoichiometry = C24H30N2NiO2 | MND = 4
Ni        3.39392110686425    0.45643567575598    0.41227020371704
O         2.07692084900774    1.67074987551923    0.85631083467100
O         4.30579977354837    0.99185749843907    1.92667265998745
N         2.44047090323597   -0.16562844707487   -1.04978520452414
N         4.76067024422437   -0.68188563439208   -0.11136205031512
C         1.01686506525481    1.99392087013487    0.21530373269469
C         0.19766692086062    3.04380975708509    0.71279237495544
C        -0.93727386272567    3.42900762148922    0.06189160105234
C        -1.36527461814539    2.80984450239580   -1.13110932248510
C        -0.60330749323413    1.78778728690114   -1.62952206143646
C         0.57960116388322    1.35987624906894   -0.98931995983882
C         1.32510644257260    0.28777058062182   -1.53041578672418
C         3.03868820944301   -1.34074434961363   -1.66583757209896
C         4.54741964391629   -1.27634778424892   -1.42328943525266
C         5.86575350409258   -0.94493681343754    0.51308535724833
C         6.25792385354136   -0.38659624609471    1.75112698028903
C         7.47813978645509   -0.77048017696498    2.34310798257001
C         7.90230223537675   -0.24423313555076    3.53460756134371
C         7.08129571047091    0.70643065104940    4.17031109472326
C         5.89375247106834    1.10746268850393    3.62988569179327
C         5.42377820530843    0.58116983096109    2.39593123797118
C        -2.63385105764004    3.31332619431196   -1.77010788075743
C        -2.99451153476824    2.68005497923175   -3.11034330492952
C        -4.26493774049977    3.29542688215600   -3.69382771222171
C        -4.63992933650638    2.66215925068575   -5.02820735245666
C         9.18587099863336   -0.67779263657392    4.18290672715421
C         8.93192122560776   -1.63873852940047    5.35163131344347
C         8.31620498265140   -2.95815666376793    4.89440767290098
C         8.07134808492286   -3.90039134004107    6.06653369007753
H         0.51521504306990    3.52655857063577    1.62403228881294
H        -1.53481388541983    4.23486317292479    0.46621293405682
H        -0.88934505159669    1.27779373250825   -2.53735067460703
H         0.91097476898882   -0.19662409921623   -2.41798794061835
H         2.62836236616823   -2.23579626194516   -1.17986376337700
H         2.80853441850686   -1.39127524243738   -2.73745498952079
H         5.01244802776683   -0.62999836476023   -2.17939209463970
H         5.00438415142945   -2.27164025910326   -1.48891367384614
H         6.56526233630573   -1.64620939664143    0.05185903354522
H         8.08819313703658   -1.50155166878388    1.82899915341809
H         7.40986608169778    1.13081317426886    5.10908111063216
H         5.27116577736799    1.83946796471251    4.12071717201238
H        -3.45959285911022    3.15253704737867   -1.06869420953764
H        -2.54142842288080    4.39586866868604   -1.90543437603467
H        -2.17247498567823    2.82395659622406   -3.81530706780998
H        -3.14860573693021    1.60655964424472   -2.98007029681919
H        -5.08765688361575    3.16419079714143   -2.98689546885018
H        -4.11591282738012    4.36893826807411   -3.83216348220065
H        -5.54774430985411    3.11137646964896   -5.42424909720927
H        -3.84252684995750    2.80292955418850   -5.75505291124964
H        -4.80967134308034    1.59394091399871   -4.90957206414623
H         9.82446185203924   -1.17016860418625    3.44649037327438
H         9.71685094411704    0.20018013315449    4.55912772805548
H         9.87854610826952   -1.83980489909063    5.85938179743418
H         8.26182429880311   -1.16103301525176    6.06975059633724
H         7.37104236024315   -2.75568623359353    4.38589633378967
H         8.98525101803024   -3.43902794255985    4.17622779429375
H         7.39425341520921   -3.44430412344658    6.78550226684544
H         7.62949270429245   -4.83326576608908    5.72396724561337
H         9.00590860874823   -4.12964746784133    6.57500720880486

