63
CSD_code = YOXLEE | q = 0 | S = 0 | Stoichiometry = C15H39N4SSi3V | MND = 5
V        -4.35753314555125    5.56044357975747   12.45318375666676
S        -4.70065249412012    4.32306146075429   14.04997748423736
Si       -1.49632420893374    4.38581070688674   12.71354389614043
N        -2.81815114309304    4.95733166537715   11.73775463599028
Si       -6.55312879023690    3.78779207161738   11.16018587765000
N        -5.79462510065637    5.33628233278470   11.39022253060357
Si       -5.24240787938757    7.72300185585262   14.49624855267250
N        -4.23468146037333    7.20603606111441   13.17588616854019
N        -3.92636587496263    7.11262578909621   10.45286559080353
C        -1.31836983522682    5.48387460256529   14.27209095100037
H        -0.70427110258791    6.36362096846003   14.09709166240151
H        -0.85651670565048    4.92138602299907   15.07677560049595
H        -2.29919021337169    5.80929356594402   14.61424454886718
C         0.14838915993127    4.50391372318098   11.73317714941469
H         0.20399938984742    3.75479427406423   10.95053801923620
H         0.98725535061909    4.33573167455243   12.39869263482955
H         0.28597046801676    5.47765675420462   11.27339554284891
C        -1.74932268536913    2.55008373099838   13.20194808363916
H        -2.68452419892149    2.42981228733549   13.74268620562089
H        -0.94681588382038    2.20693713147260   13.84677333831569
H        -1.77684189214456    1.89867432754120   12.33241914940779
C        -2.70960052558042    5.03049212912908   10.31210294203160
H        -3.55813576570766    4.49850464444636    9.85635832416030
H        -1.78627630085808    4.56926216172950    9.94229069135216
C        -2.75369579827283    6.50338719302497    9.86997891003011
H        -1.85997368440546    7.00296157982752   10.25556777553652
H        -2.74463898312558    6.57740504010283    8.76991879596683
C        -7.52659271138731    3.76695911434804    9.50726956632425
H        -8.42505741665748    4.37234709526593    9.56243624219338
H        -7.83557244003940    2.75443935513951    9.27434707798962
H        -6.93209931956356    4.12733545817495    8.67347461143746
C        -5.21772957643847    2.41940854192777   11.05857344972448
H        -4.82608917714121    2.29012522737091   10.05277804593219
H        -5.63269561402674    1.46637760270089   11.36966155801371
H        -4.38944818565822    2.65488370219757   11.72448378769205
C        -7.79754970757353    3.41980177416214   12.57033934642575
H        -7.29331145773072    3.44283679189203   13.53298912874163
H        -8.23880726198811    2.43568775189253   12.45040104034305
H        -8.60698665076181    4.14460307902022   12.59665030620110
C        -6.25049166005137    6.49710890546081   10.68709080302573
H        -6.45056799899934    7.30273015756934   11.40939184912232
H        -7.17565152257026    6.30783857552455   10.13007593576209
C        -5.15752098498127    6.96710095283300    9.71171084724776
H        -5.02741545697028    6.19600771300139    8.94655698086328
H        -5.46049182467285    7.90253554326708    9.21289323713159
C        -5.35966186477611    9.63756717678029   14.52843739240686
H        -4.43247595636588   10.09155235068098   14.86157119761249
H        -6.13529929499446    9.94771892464610   15.21916587298485
H        -5.60355212259710   10.05246170880422   13.55534694169894
C        -4.51092167775994    7.15791812746037   16.17500466398488
H        -4.41595642292118    6.07541064571605   16.19877932143606
H        -5.15463149531715    7.45290390847946   16.99728360524043
H        -3.52810748872283    7.58600096036610   16.35386731090958
C        -7.01701666411758    7.04262869603868   14.26392134025444
H        -6.98302113799715    6.05849196127387   13.80001131145555
H        -7.63759988263088    7.69181370576486   13.65148960580386
H        -7.50781369741941    6.93855236709186   15.22594602940482
C        -3.29658505038375    8.09919211032789   12.56597723391815
H        -2.30201190517490    7.62860977801507   12.55605850110656
H        -3.21391987844019    9.04792479056859   13.10918059441941
C        -3.72543012529315    8.38022053088106   11.11542320514272
H        -4.67221918115600    8.92795311226340   11.13852392582203
H        -2.97526788278311    9.00657446826268   10.60496931376445

