137
CSD_code = YOXMUV | q = 0 | S = 0 | Stoichiometry = C61H71OPS2W | MND = 5
W         0.03518694966902    2.57395996708080   14.38256930058668
S         1.06653595376654    2.19707866381493   16.60265747713307
P        -1.47159611927565    3.55453582297298   16.13453754976062
S         1.94779716721494    1.51129566313921   13.31073343524832
O        -0.78201283100785    3.56632757843447   13.30404750919170
C         4.62253307963173    2.04100399493607   13.05370154081596
C         4.30603816257044    5.42018640950371   18.06533176145061
H         5.01200920229342    6.09172086444957   17.59572981692443
C         1.18620488422399   -1.00592526733601   16.54916285758850
C         2.52084454263288    3.68974370736778   19.28737992363602
C        -0.93924651868617    0.86616386016211   14.08659545578337
H        -0.65918784811912    0.03810501943873   14.75726310060795
C        -2.25710270045756    1.48646524234475   12.04500195423986
H        -2.87536476781608    2.18400992566540   12.60919925360651
H        -2.83957387132289    1.08799319113157   11.21598413202961
H        -1.40394634525092    2.04115002484712   11.65133814567160
C        -0.87780352504181   -2.71398141629952   15.72829029103216
C        -0.12942111846850   -0.37429306671147   18.60246036277025
H         0.76908113539603   -0.47766956625863   19.20932927132829
H        -0.98393850206952   -0.74358252445988   19.16449545969292
H        -0.28398128224333    0.68642874046213   18.40980376301304
C         4.31210705356791    4.79719170299464   13.25179952941655
H         4.17769540303509    5.87000727350814   13.27594175304318
C         4.28742244115210    4.08640643405599   17.68865027502135
C         3.38864043713496    1.76648032254991   17.96801869736836
C         4.41856376962333   -0.38358646418771   18.30858167384261
H         5.21643084378850   -0.98334211097920   18.72174283075900
C         0.01715826544206   -1.11455062334725   17.30867791751230
C         1.32529082019087   -1.76509877232886   15.38293404619356
C         2.54973627656197    5.03511599530999   19.62563253972167
H         1.87298833552629    5.40043183038208   20.38699181840791
C         2.33016032184465   -0.23569749781729   17.09777536160614
C         4.53199844675742    0.03536935911304   11.58266872024370
C         0.29401555083087   -2.60690388027621   14.99325337424351
H         0.41827300715284   -3.20877713584848   14.10290721719065
C         3.34399358970109    2.59133198388898   13.23735968620890
C         2.36755864985292    1.15678484799739   17.22625478020503
C         5.46314961335985   -0.19346586669309   13.79951435447182
C         1.86569491422426    4.66262882973410   13.25000818908819
C         3.38253737997601    3.21341143286290   18.29639297743361
C         5.73748054649779   -1.52438731327322   13.52917989080752
H         6.21376001152850   -2.12916344249095   14.28905832998710
C         0.18683640186936    5.66751830058703   11.83655608927600
H        -0.28279008807969    5.76289068332433   10.86779211158480
C         2.13673458731016    5.44002161705223   15.63853363662916
H         2.04021336892860    4.48470769231173   16.15989730804064
H         1.76285127912157    6.22206724410446   16.29531140193691
H         3.19862130853807    5.60940413994848   15.47644913844652
C         0.32160065593578    6.29291243891261   14.13174018243773
H        -0.01110616467962    6.91788656284517   14.95159057085325
C         1.40071889450944    5.43383653034760   14.32886750214489
C        -0.83123875744140   -0.56437710113175   12.13413485356213
H         0.07844991908676   -0.02583913855277   11.87170936123241
H        -1.32432545954344   -0.89207715989503   11.22090330907754
H        -0.55382860106898   -1.43626098258077   12.72052213584247
C         5.57744526456831    4.25677760984652   13.12732816419805
H         6.44239118542910    4.90226181613817   13.08509381436073
C         5.72298820644859    2.88572674299752   13.01088280921948
H         6.70249461880368    2.45561185784166   12.85637904516801
C         1.24682457375429    4.79128363577034   11.98954440811901
C         5.79621903936652    0.38020115800903   15.14308888671430
H         4.89612506845480    0.76499803882129   15.61882958888103
H         6.50496422297953    1.20172994664539   15.05324143374272
H         6.22477792658521   -0.37995003795084   15.79178033791559
C         3.37498948486644   -0.98396337769985   17.63203717342944
H         3.33749976586432   -2.06014405911788   17.53958026345245
C         3.18730098296993    3.97904494427412   13.30060320862384
C         4.80990377302503   -1.30314639970629   11.34838372079810
H         4.55582618691413   -1.73119917737500   10.38822620493881
C         5.41330200376401   -2.09828251006992   12.30896342187303
C        -0.29291308778993    6.42314624751948   12.89822722951172
C        -2.96941483369187   -0.47900949928984   13.42401220483433
H        -2.66460184484344   -1.18818812819966   14.18929294782118
H        -3.39490815424728   -1.03093887057207   12.58769232878601
H        -3.74754387637542    0.16326947491095   13.83208452600475
C        -1.76656959020721    0.35277090276069   12.94902789540616
C         3.89981815346487    0.86354160093983   10.50636514560658
H         3.96070970359048    0.35910175794774    9.54500116606590
H         4.38384285863244    1.83559405292115   10.42880280924542
H         2.84974763361972    1.02930067347568   10.74342436952353
C        -1.00272180046823   -1.95104004923192   16.87870030476000
H        -1.90245124156683   -2.02640929842277   17.47404719310003
C         5.69357814182819   -3.54862420791323   12.05156426638242
H         6.65409001149255   -3.83796414439492   12.47367843829486
H         5.69876307600160   -3.76155278873098   10.98518480581653
H         4.92406507275088   -4.16499884595917   12.51801874223806
C        -1.44413471950538    7.36132364309108   12.69422076254375
H        -1.21732479171613    8.07373583860033   11.90203294857691
H        -1.66918572462604    7.91333058813963   13.60419669618700
H        -2.33073373290418    6.80345139419387   12.39437086041648
C         3.43715328522867    5.91472711924489   19.02678316092884
C         2.57681944722037   -1.69606379976698   14.56751058574923
H         2.89030263111740   -0.66467447225905   14.43449139644136
H         2.42553429958434   -2.13326885752099   13.58390415500294
H         3.38975772279429   -2.22953255310021   15.05809225265070
C        -2.95836105295544    1.31545803080486   16.63131484552007
H        -2.87088978736097    1.22558361980950   15.55469169025173
C         4.41022965098859    0.98679414270115   18.49230318123758
H         5.18763206063261    1.46583950290439   19.07115438635973
C        -3.70908773187668    0.50785170178173   18.75546275042905
H        -4.25176110219805   -0.21691855054058   19.34458735923582
C        -2.35574282171823    2.49139241006881   18.63467849102882
H        -1.83998825132328    3.29146544505733   19.14264654228183
C        -1.95508667889707   -3.67306363930030   15.31410102887496
H        -2.03717615005095   -3.72490253739697   14.23005396044794
H        -2.91825692317355   -3.38405798580614   15.72979523948981
H        -1.71820846489254   -4.67368542334975   15.67846141199252
C         3.48070572224371    7.36218026907091   19.41633983938341
H         4.37291128185299    7.56455314908147   20.00932965771444
H         2.60960151526794    7.63382906365160   20.00809901775050
H         3.51866064963857    7.99757040636690   18.53286735573200
C        -3.65795593662858    0.38646543949761   17.37531471920364
H        -4.15958479046163   -0.43298326397347   16.88192852223636
C        -3.05152869887818    1.55338638862348   19.37995766037542
H        -3.07533346206932    1.63995915393112   20.45650708130430
C         4.84937386152590    0.59375590490586   12.82237867779259
C         1.73200210041512    3.99669695364378   10.81426861278551
H         2.81713953632459    4.03825320351271   10.73168592625712
H         1.28890453011335    4.36441084102624    9.89230403807705
H         1.44194901098393    2.95179308331363   10.94281375604172
C         1.57715327969117    2.76235765295844   19.99118081100527
H         1.10706835175007    3.25723205219493   20.83833786042427
H         2.10356983773870    1.87782707742601   20.34639869313121
H         0.79938149908555    2.42638802540126   19.30681405328413
C        -2.31561137239436    2.38284930024255   17.25047975530225
C        -0.94271050765220    4.89256056487618   17.27711509731797
H        -0.10823270661942    4.55842131670188   17.89277493656676
H        -1.78155768755007    5.19591444889922   17.90347503250012
H        -0.61972349086687    5.74042947463505   16.67781973398715
C        -2.91123484147914    4.36130851161582   15.33200568272403
H        -2.52558534861053    5.12258841869889   14.65442444678362
H        -3.58258792115838    4.80455851764851   16.06822560394237
H        -3.44450169220342    3.61916264464511   14.74011583372565
C         5.21389583878927    3.59392538238232   16.61952052953605
H         5.78487481127401    4.41446689461874   16.19111521120147
H         4.64975665641706    3.11479511534746   15.82106238198739
H         5.91041761327848    2.85901475827360   17.01983498553688

