89
CSD_code = YOXPUY | q = 0 | S = 0 | Stoichiometry = C34H50FeN4 | MND = 4
Fe        9.94391505401933    0.06483213010443    3.14242694052654
N        10.49491929229393   -1.43300632187089    0.35888287297699
N         9.92081876784633    0.62668724179921    0.10153623948089
N        12.98875964569309    0.31836481646178    3.41386330884753
N        11.88497641500929   -0.16674914406560    5.21170311534715
C        10.27660170288716   -0.28231730384424    1.04923464438194
C        11.73370440416620    0.04427044571775    3.86796642010232
C         8.62098596639276   -1.34989335349112    2.93993599799314
C        10.12843571812438    1.91821058103638    3.70435434778130
C        10.26467091981542   -1.25072029177886   -0.98980626125756
C         9.89749616390496    0.05060137801434   -1.15188557885145
C        10.43589857120915   -2.28463458017744   -2.04735442577826
H         9.95678369308616   -1.95125370534044   -2.96461494257042
H         9.98689375002642   -3.23045375534670   -1.75782373767275
H        11.49129901853398   -2.45159129974993   -2.26473749220889
C         9.54553429689249    0.75355914256343   -2.41675110963666
H        10.39202386832746    1.32494734956588   -2.79919683431269
H         8.70806202162031    1.43024426748997   -2.27264942533354
H         9.26300760172055    0.02664341842875   -3.17480574321141
C        10.91386457746429   -2.64430507466022    1.03404895793276
H        11.04130997689636   -2.31709746796801    2.07405589420439
C        12.24980368311161   -3.17032596185175    0.50795854296715
H        12.12571321556099   -3.71346655304593   -0.42474550461053
H        12.68104012196234   -3.85140319792519    1.23680975398561
H        12.94244440300195   -2.35052440928684    0.34639366245941
C         9.84353788921278   -3.73589581857206    0.99567361156418
H         8.86685607727583   -3.31053231969599    1.20328188166164
H        10.05960189022931   -4.47963172610561    1.75754607080092
H         9.81199705545989   -4.24039941766311    0.03330096048553
C         9.65848700717529    2.00693413416046    0.45417698453259
H         9.99496570672843    2.06781231731107    1.50014843833730
C         8.16624286609884    2.33256532732813    0.42869467716458
H         7.76901080459622    2.35944458020574   -0.58356118336028
H         8.00085928061098    3.30223507152610    0.89038887473807
H         7.62145210821348    1.58464228830092    0.99804627438641
C        10.47064647176718    2.99975290445848   -0.37628591816686
H        11.47977139465935    2.62676696443895   -0.52916816281876
H        10.53172598397350    3.94263534525055    0.16094229962260
H        10.01512886063831    3.19355451979436   -1.34324218862354
C        13.89962928608633    0.29334142283263    4.45684302891703
C        13.20545760492401   -0.01531870264962    5.58498101159445
C        15.36167293940150    0.55400627387623    4.33474049264444
H        15.76578855790901    0.82462075210648    5.30753079055810
H        15.56392131551555    1.37339527919482    3.65069384894513
H        15.89540275307444   -0.33040482893458    3.98540924015790
C        13.74218889104544   -0.23438174171076    6.95677368384453
H        13.76501810744055   -1.29723630715898    7.19875709635006
H        13.14828573210870    0.27797047772949    7.70906357886591
H        14.76005755661406    0.14217706546683    7.01701450962450
C        13.25814342336741    0.56365312517351    2.01318847852588
H        12.32446529811635    0.25690674067516    1.52094589099772
C        14.41159328165820   -0.28843844586216    1.47937692324442
H        15.37894192483103    0.15209269293642    1.70125433610964
H        14.32711936199494   -0.36840841096868    0.39794421468933
H        14.37406622372808   -1.28695984931869    1.90702853287654
C        13.47940191921571    2.04614476015007    1.71139615810279
H        12.58285831057126    2.60718337197073    1.95357667953349
H        13.69638604655282    2.17084509589977    0.65347106780571
H        14.31249735467744    2.45410713678132    2.27850211835274
C        10.73097800925076   -0.39733144427139    6.06193447441349
H         9.88736626962470   -0.49299165390413    5.35630385436995
C        10.83831026107184   -1.69904684746520    6.85478379403614
H        11.23199086172500   -2.49428555332390    6.22615912359962
H         9.85134124720373   -1.99376656421598    7.20155931488900
H        11.48308747467572   -1.58663767710006    7.72190638926204
C        10.43415102808263    0.79824489545320    6.96745712060221
H        11.18403304684984    0.92021556563358    7.74439627177224
H         9.46918597125155    0.65539217235024    7.44681127442713
H        10.39413369473747    1.70794332400154    6.37357723564755
C         8.85092273171213   -2.43914347192135    3.79211225383347
H         9.83522029889140   -2.56835387583475    4.23106031147602
C         7.87800616663426   -3.38242491412306    4.06884216588827
H         8.09686063021659   -4.20848929934998    4.73473201925316
C         6.62474997148512   -3.27895228015032    3.48688357733489
H         5.86013219527517   -4.01426141588633    3.69737330145839
C         6.36906183441678   -2.23001038402287    2.62120700548512
H         5.39843522806531   -2.14545943222148    2.14751285693073
C         7.35249195472704   -1.29069906590954    2.35531027357528
H         7.12388172380101   -0.49477874715683    1.65272168289374
C         8.75079377444048    2.15520146785789    3.80176230560129
H         8.06637678217834    1.34365749744054    3.50829654799163
C         8.22349079801119    3.34941963486567    4.24434968892330
H         7.15209575025083    3.49518159709951    4.29966504139443
C         9.08512732778812    4.37143853139660    4.62392550154159
H         8.68925149364333    5.31538016091389    4.97113473156561
C        10.45133359312198    4.16379109721592    4.56450379494575
H        11.12748270233358    4.95144920910073    4.87328674950389
C        10.96598816691466    2.95466785725855    4.11970605479682
H        12.04017687636889    2.82475118664596    4.11299133732180

