65
CSD_code = YOXPUW | q = 0 | S = 0 | Stoichiometry = C23H38BNPTa | MND = 11
Ta        7.87934524416450    6.67438612410484    8.61285646505192
P         9.20088140398615    8.32423470723563   11.17870644557828
N        10.49423308812955    2.91801807746930    7.81685456456918
C         5.72296030783542    8.39039624348032    9.07070788130452
C         4.71668410289322    7.65403197055993    8.46247060818775
C         5.04966053361574    7.46219006255948    7.09399612305964
C         6.26995889634419    8.07077371536531    6.84098240156669
C         6.78684396600590    8.61718033973774    8.09405781618627
C         5.68116490349046    8.97487888267470   10.44877808483525
C         3.45243329459662    7.15679138771664    9.08771025411452
C         4.18556284437607    6.72409024683559    6.12267823940610
C         6.92148180477310    8.23376088909595    5.50079122538288
C         7.56062363716494    9.92135665910568    8.10167448354862
C         8.19065099794303    4.52255408769898    8.13574933289879
C         7.68047542138989    3.65610641044016    9.26317649703224
C         8.33932849805103    4.75233494669745    9.77306510135218
C         9.43622471828876    5.21535541823728    8.98220018050681
C        10.01286060983640    1.80837189608504    6.98712702186739
C         9.39580837386379    2.33891410583331    5.69341874556877
C         9.00286540915531    0.95860331919755    7.75826937679821
C        11.87823022173500    2.87088462407642    8.28526319779701
C        12.86788225467492    2.97463339930429    7.12205591359476
C        12.15158135212947    1.63658537016293    9.14568592769593
C         9.59229056207823    9.70110465416402   12.36307039330081
C         8.46710098778213    7.14286805798032   12.40032639267822
C        10.89558045555969    7.58206562766999   11.08661480967789
B         9.68015827595766    3.96440579136869    8.15901498276479
H         6.67822169306637    9.26018908327213   10.78596888287101
H         5.05572878035904    9.87064663288307   10.45603005064883
H         5.26186769845232    8.27027994701083   11.16835309089198
H         3.45421084346953    7.31895987271399   10.16294031270933
H         2.59066008885862    7.67707740878965    8.66580425563494
H         3.32102162456580    6.09105759496329    8.89739590913680
H         4.04670418286447    5.68858853086058    6.43831033233221
H         3.19944450539365    7.18684369595820    6.06610453423212
H         4.62277735370337    6.72619975641519    5.12744773294390
H         6.84206534131739    7.32220182005082    4.90723152532279
H         6.43657593104581    9.03868789391050    4.94395279890863
H         7.97763023359697    8.48313420655758    5.60118828476670
H         8.35726915222779    9.91352483255311    7.35730098942658
H         6.89643391866607   10.75818618806510    7.87568687637854
H         8.01488555703189   10.10541908206593    9.07658594607879
H        10.87543200978395    1.18788017198148    6.72779259048915
H        10.10055414315916    2.98354080221973    5.17320049016528
H         9.13090779871997    1.51159976493418    5.04016195378198
H         8.49926988558042    2.91134177428384    5.91441144855046
H         8.19205324401371    1.58669974742834    8.12098936820839
H         8.59380304451740    0.18565386436712    7.11316508428253
H         9.47341429343061    0.48374350594355    8.61520122643420
H        12.00846395900086    3.75718829100449    8.91569831510807
H        13.87869038096472    3.07089901830876    7.50938862809254
H        12.83054070305985    2.09444353853446    6.48529782119086
H        12.64097561616204    3.85043957174983    6.51884326365745
H        11.42492413254657    1.57882507568787    9.95232111522999
H        12.09862046137968    0.72262061722322    8.55978748512012
H        13.14632654468207    1.70667063914955    9.57830679329014
H        10.13604053179963    9.34195138495052   13.23520099707871
H        10.19142072751586   10.45155990192459   11.85029258797791
H         8.66367453692987   10.16824384517542   12.68692530682565
H         7.49540557788280    7.51482594484099   12.71951930361319
H         8.32923775408514    6.17092740119251   11.92565423735776
H         9.11581961900026    7.03860018738524   13.26899134727383
H        10.83749347702931    6.63274406878670   10.55431664147144
H        11.54742044954363    8.25309767030884   10.53020531032682
H        11.30484203862850    7.42302965176223   12.08302469571196

