43
CSD_code = YOXXAK | q = 0 | S = 0 | Stoichiometry = C18H20O4W | MND = 10
H         1.55265989736234   -2.02939479235909    5.40682867867334
H         3.69159528732399   -1.12246166938480    6.75634792794641
H         2.82644498326392   -0.07040877176271    9.06907024037540
H         0.15616121873527   -0.35988574517909    9.14705023715523
H        -0.62523664473399   -1.53574341902351    6.90122522305794
H        -1.28395643082310    1.13930982565522    5.14910230910903
H        -0.35418579568510    2.65624808520073    4.78162407988048
H         0.80992831142039    3.85496374258411    6.68533188248496
H         1.73841010012602    3.65048665644316    8.99533423935695
H         0.74058665122551    2.22511414240458    9.29509341017497
H        -0.43853332194135    3.83739493614378   10.44063163406167
H        -0.00024856786551    5.85300897440822    8.19612930929036
H         0.89863086834442    5.80786011617169    9.71427130349083
H        -1.17656468280713    6.14941987969546   10.99764942922950
H        -0.97128224730555    7.44771131328936    9.82091846233162
H        -3.31585952647119    6.58731102989114    9.86493637330384
H        -2.55890672141186    6.36210517113481    8.28739087425028
H        -3.76145060790962    4.30381813946174    8.93939257403935
H        -2.85374405081682    4.21955522949580   10.44998370736060
H        -1.64476342802891    4.12454279984077    7.65438188773436
W         1.32049744922623    0.87881516579074    6.51535118376145
O         1.86307311190927    1.51594472943528    3.52472255425875
O         3.46333358025614    3.12817759907980    6.62525356570286
O        -2.00672371200438    2.39806460365437    8.71934327820160
O        -2.00030329487508    0.48142070018146    7.63692711837525
C         1.66647157021403    1.27157130000670    4.63270348957972
C         2.66444493659979    2.29500019191069    6.58524686921715
C         1.51919003052780   -1.44629693355349    6.31809941150414
C         2.65540242937078   -0.93162231337773    7.01371309566273
C         2.19347884664396   -0.40240799037883    8.25627609793604
C         0.79501078488569   -0.55594686523012    8.29689070770742
C         0.37993148003696   -1.19756742011679    7.10483428668406
C        -0.49638604936530    1.82108832940035    5.46644314123991
C        -0.46474479637740    2.12172562277961    6.87186700382282
C         0.61311824622613    2.97061447440193    7.29900742041362
C         0.76934580170819    3.19302299449045    8.78465612482552
C        -0.34520248998955    4.08089321647419    9.37676103748208
C        -0.06207364115302    5.57745068151095    9.25076906677653
C        -1.16940800616448    6.38031300527357    9.93027706851020
C        -2.53347427148679    6.04506227329049    9.33234453712126
C        -2.80769239100724    4.54553303420300    9.41000650183553
C        -1.68824657505965    3.78942229513339    8.70018203734416
C        -1.52362833212452    1.58506566152797    7.76633061873034

