82
CSD_code = YOXYUF | q = 0 | S = 0 | Stoichiometry = C34H41IrN2P2Si2 | MND = 7
Ir        4.50531827921880    3.93719397986980    4.14583974477763
P         2.92636680795755    4.53403087866857    2.58045702750473
P         4.65998784233365    1.65800264118459    3.82464236931092
Si        5.56175409685876    5.43485243627174    1.28592704493293
Si        6.88961401846379    2.75358120782301    2.08532821282843
N         5.84495317037993    4.08540111282185    2.29035530672122
N         3.47164026544516    6.60450413739822    6.89327680925046
C         3.67405836620131    5.79911993828088    1.50576472331694
C         5.78049649077183    1.21592226745562    2.47143116255888
C         5.82006515363377    5.25504467183331   -0.59671780454952
C         6.57078885112813    7.00790956959091    1.71434711836634
C         7.55844684742671    2.44573385927501    0.32944755020489
C         8.44389363740200    2.75657599718879    3.20483278255552
C         2.35791068716900    3.23237079514364    1.43906280919634
C         3.26834647582524    2.68211095251734    0.54296549259046
C         2.89548545083364    1.63727752061996   -0.28191443425528
C         1.60989521002937    1.12490355895283   -0.21719906278422
C         0.70027014330691    1.66431645020779    0.67594719661648
C         1.07101375268425    2.70715335659387    1.50559846716095
C         1.35315117090824    5.33348761031597    3.05021091658351
C         1.01736133443304    5.53440849709274    4.38210180723782
C        -0.15121103248666    6.19980612657860    4.71361247180445
C        -0.99170990065983    6.66670863409839    3.71778396268905
C        -0.66324588608458    6.46684105757640    2.38526082878981
C         0.50332132051423    5.80611719289046    2.05203706527820
C         5.31298347337656    0.80394362832403    5.29687072285099
C         4.44836694546398    0.61527982402275    6.37276949643755
C         4.89792204616680    0.02098588047410    7.53555240455052
C         6.22009999301825   -0.38246593369587    7.64353694727958
C         7.08824514588091   -0.18317964086238    6.58430546357004
C         6.63943702790878    0.40892617173482    5.41577218190685
C         3.15580764937220    0.65333142155485    3.54917686833535
C         1.92384474136906    1.13847462160863    3.97076100878347
C         0.78217663037017    0.37334099241028    3.81651545229921
C         0.86042940816307   -0.87679602947005    3.22607273999849
C         2.08463837621302   -1.36296371595189    2.79826669023395
C         3.22971305380821   -0.60565118040207    2.96516737550340
C         6.04409000882295    4.05173816364634    5.81487251054805
C         6.06039893128746    5.17268935277011    4.99216947913098
C         4.89687215953737    5.98957207831177    4.85714183590573
C         4.10111614081828    6.29626968215009    5.98111629779646
H         3.48743747633714    3.72998660884635    5.27624004440157
H         3.14199854564697    5.82754624239537    0.55500626983739
H         3.51827331252658    6.75467657663906    2.00805382644868
H         6.33056625523464    0.30637335762589    2.70557526582660
H         5.15473972942786    1.02654353826236    1.59964126960855
H         5.25111575881616    4.44458606770147   -1.03863558559186
H         5.53559260830707    6.17061431285198   -1.10642079902152
H         6.86693552175465    5.07850960448230   -0.81095034517485
H         7.61365409064677    6.84096378415095    1.46242426236461
H         6.22991014651206    7.86053394183093    1.13396994798769
H         6.53643055013801    7.29242626367798    2.76057685180040
H         8.11338790860263    1.51472842636709    0.27828297299316
H         6.77129461548882    2.40404062310092   -0.41374418040098
H         8.23496233628243    3.24379529061444    0.04855848722785
H         9.05151061337292    1.87020989003792    3.04210104674085
H         9.06160548527207    3.61737974509487    2.96561635803212
H         8.20925597802730    2.80781361092976    4.26247452294459
H         4.27066927565017    3.07834759405950    0.51041052788436
H         3.60925220776517    1.21785042258809   -0.97709030781898
H         1.31878672938591    0.30709378653710   -0.85967780809153
H        -0.30213837788183    1.26580479875967    0.73191369207082
H         0.35819641980982    3.11713751091779    2.20606290310167
H         1.67994910391135    5.17390846937462    5.15501131399244
H        -0.39896429383031    6.35744124072823    5.75229594850764
H        -1.90210322850442    7.18761656534792    3.97548796267733
H        -1.31844269545428    6.82877830033506    1.60595612986705
H         0.75643865718286    5.64561243229651    1.01268280882939
H         3.42300863034975    0.94562264867232    6.28620971591673
H         4.21955021840527   -0.12472678941970    8.36326901173594
H         6.57353033678967   -0.84525396298509    8.55304941244777
H         8.12178821851071   -0.48796292603143    6.66774746419019
H         7.33023370409379    0.56920766548942    4.60221767564111
H         1.87780321861850    2.12647450978802    4.41165497510811
H        -0.17107818221478    0.75430862430606    4.15236174402370
H        -0.03081105064349   -1.47364604651489    3.09974508470179
H         2.14764717667524   -2.33882087709078    2.33888926204259
H         4.18425863041197   -0.99657112353609    2.64347908613798
H         5.45993809950601    4.05444054945010    6.72914824085184
H         6.92995421164470    3.43314563582445    5.87095140472814
H         6.89112202381691    5.33880470633406    4.31531085326786
H         4.94392574832890    6.81718861329140    4.15327563834052

