55
CSD_code = YOYBIY | q = 0 | S = 0 | Stoichiometry = C24H20N10Pd | MND = 4
H         1.10431902992906    6.82826397059039   -2.17359692054416
H         0.99199679839267    7.88643906303748    2.49511177311439
C         2.31201782614827    6.88896576717916    1.49865699751576
C         3.05644902354858    6.71745175958624    2.77446050012944
C         4.26231881451100    6.02343754712060    2.83615392061465
H         4.66627897362598    5.59825435426319    1.93339109576004
C         4.89815586658643    5.90685312610893    4.05899316126539
H         5.83561409291101    5.37559001726496    4.14306701390938
C         4.31311211814304    6.48335850447140    5.17671424184020
H         4.77594818909145    6.41551466204189    6.14893037463318
C         3.11002360278127    7.15388150684947    5.01208554370281
H         2.60957901605448    7.62188904546008    5.85042879758038
C         2.36609787384898    6.36989500403004   -0.78504957068606
C         3.16429480453226    5.66990628158655   -1.82629529249382
C         4.35827195925988    5.01905044773391   -1.52565290531733
H         4.71285812834921    5.02272531304489   -0.50916728811411
C         5.04586150944336    4.39007506158642   -2.54782562646692
H         5.97560113815658    3.87563408601758   -2.35016687582562
C         4.52271800182717    4.43004141918157   -3.83182989104465
H         5.02737549011159    3.95253601400834   -4.65728369107588
C         3.32645657329742    5.10387051970457   -4.02939225224969
H         2.87344399784868    5.16636585296129   -5.01084247303052
N         1.19317712882490    7.56537131397221    1.54259810812386
N         1.25838834499234    6.95116488458720   -1.16761073197080
N         2.88644805829099    6.32064790771992    0.43994952522958
N         2.49794218028830    7.26991882581986    3.85008086793673
N         2.66511118083036    5.70593085435552   -3.06064107615287
Pd       -0.00001594081993    7.95497383984049   -0.00000096659769
H        -1.10434722789926    9.08167812994271    2.17359918449583
H        -0.99198154918275    8.02360357530012   -2.49513227058618
C        -2.31199001949237    9.02108807689519   -1.49867421522147
C        -3.05637308806993    9.19268917195558   -2.77449399964723
C        -4.26215896442288    9.88684588498514   -2.83621449961844
H        -4.66608108639120   10.31209175721948   -1.93346274597566
C        -4.89795356232030   10.00350793344496   -4.05906836341785
H        -5.83533865812112   10.53489829028461   -4.14316602053843
C        -4.31294081831795    9.42695817334541   -5.17677894157489
H        -4.77575533432374    9.49484290657377   -6.14900334408344
C        -3.10992381423003    8.75631460416168   -5.01212710840734
H        -2.60953790376195    8.28820256006312   -5.85045505947880
C        -2.36612346563200    9.54005832609765    0.78505391063764
C        -3.16438358499673   10.23993398618262    1.82632843759129
C        -4.35840272878727   10.89072364321258    1.52570920563923
H        -4.71297568963007   10.88708389552724    0.50921781532393
C        -5.04603710499710   11.51961125749733    2.54790587367901
H        -5.97579740194232   12.03401898339641    2.35026088183302
C        -4.52288168550157   11.47964874396813    3.83190377205083
H        -5.02758508502339   11.95706966867486    4.65738051634904
C        -3.32656873813682   10.80590248292743    4.02943878926797
H        -2.87359729779604   10.74332641079851    5.01090622839459
N        -1.19317407674114    8.34464213764165   -1.54261159667006
N        -1.25839536925941    8.95881683437057    1.16760503402288
N        -2.88644526910792    9.58935924638502   -0.43995491226353
N        -2.49789561438594    8.64017890006671   -3.85010541745764
N        -2.66519864233435   10.20389746895798    3.06067248586922

