59
CSD_code = YOYBAP | q = 0 | S = 0 | Stoichiometry = C22H33NOSiW | MND = 8
W        10.13032843812309    8.33877393676799    4.44487262277565
Si        9.83829010271121    7.02030850706258    7.65197942389665
O         8.24690059388830    6.07796453458361    4.29332424835123
N         9.07763737221951    6.93062569472659    4.42485018184073
C         8.85683656934919    9.92278250022363    3.40895599907866
C         9.68146069191473    9.32143409126311    2.38948179220358
C        11.03212053987466    9.66143964422414    2.66672220680423
C        11.05484352875734   10.46850577457505    3.84547289175806
C         9.72210319317783   10.66702448086203    4.28123205892503
C         7.35660253537276    9.99732528378154    3.36038250808889
C         9.16260808329989    8.61101166723399    1.17368280298942
C        12.19964759048661    9.44994666404718    1.74953903707560
C        12.27334113981686   11.15606956802380    4.38633821065984
C         9.27339460771482   11.66216588303071    5.31125088323595
C         9.81043294117170    8.60755768041957    6.59692992263813
C        10.97364469663662    5.65532504586417    6.93074271519914
C         8.06355896122930    6.32358920225968    7.77637488963814
C        10.46486389814066    7.41131631385353    9.42242107003039
C        11.91434932930741    7.25341473513547    4.01122031095702
C        12.80960526704862    7.51358007578921    4.97038375025785
C        12.21166324095825    6.35441278135672    2.89473543483478
C        11.18838581097857    5.62594309861224    2.28314141968535
C        11.44937696002868    4.81436148162830    1.19574027913024
C        12.73335056140520    4.72381750815120    0.68201336565186
C        13.75708041681649    5.44738219975989    1.27069431590619
C        13.50074846020236    6.25166694947805    2.36450405508725
H        10.56034456014708    9.32521294057735    6.96671814004964
H         8.83292920539469    9.07514044828811    6.75919425121621
H        10.81430751079523    4.71621967933484    7.45241033514483
H        12.02721658729910    5.90232852929456    7.02099245467142
H        10.75911084699050    5.49017062655785    5.87600357318619
H         8.03822596754775    5.42042959667069    8.37781170424167
H         7.37997618750045    7.03694553614823    8.22666820391255
H         7.68258980184346    6.07445353404525    6.79130683656557
H        10.46592967641720    6.51724059646378   10.03650770373829
H        11.47784953917042    7.80165286275962    9.41291567949063
H         9.83481023113005    8.14533770711205    9.91427583518026
H        13.75648168402916    6.99224105909923    5.06666633054128
H        12.61171661940118    8.25047725034452    5.75087310490207
H        10.18446811248475    5.69386289724168    2.67790601679600
H        10.64610154635756    4.25279852002782    0.74142765295029
H        12.93488009101634    4.09599649160338   -0.17349511088518
H        14.76034723816320    5.38554822559826    0.87340390701894
H        14.30560192249080    6.81940612835624    2.80989604463260
H         7.03710726550435   10.75002451376684    2.63620488786142
H         6.94392303521761   10.26194775450624    4.33237294711524
H         6.93420892179775    9.03752461185111    3.06205459171071
H         8.85175482797884    9.33352422700325    0.41600203111302
H         9.92664985603015    7.96740002660467    0.74138595456263
H         8.30097877576362    7.99397005209091    1.42767625891087
H        12.30897544985485   10.31794117261167    1.09504269290818
H        13.12791849448235    9.32981265111445    2.30528205329249
H        12.06162252509106    8.56939383278300    1.12551765926025
H        12.46579094270963   12.07446103746066    3.82693946592389
H        12.14650548765488   11.42402923507146    5.43443235480761
H        13.15490662808452   10.52122904211048    4.29660364136739
H         9.15835405757286   12.64274892235580    4.84323349736133
H         9.99708310496262   11.76066834124201    6.11868148720953
H         8.31505776854318   11.38251664714217    5.74500141654116

