67
CSD_code = YOYDUN | q = 0 | S = 0 | Stoichiometry = C20H41ClN2P2Pd | MND = 4
Pd        1.49378160143029    4.50263054427332    3.41589391195565
Cl       -0.72927936967801    4.86188667051643    3.42458017760577
P         1.98163701297743    6.70896970635179    3.38374794428471
P         1.09312383956530    2.23878917100359    3.46467370481357
C         3.61846307297490    6.02762859120658    3.31915603173125
N         3.53673491542808    4.67327215796217    3.36702572744730
C         4.82520336253612    4.25915998721125    3.35292400833294
H         5.12549052573027    3.22979911504579    3.40000561345946
C         5.62116952504064    5.38344997590326    3.29329077266190
H         6.69176509850310    5.44481758050289    3.26460905302458
N         4.85815156599619    6.49718979867639    3.27402666090647
C         1.76095657986872    7.67601010124538    1.79511515945626
C         2.87945918786503    8.69301212836709    1.59760387351069
H         2.73647900718651    9.56166010223290    2.23568654541834
H         2.89492327813015    9.03248378959020    0.56251343015005
H         3.84438851927008    8.24576052857364    1.83492483992840
C         1.84640507258774    6.56208964996054    0.74172067880537
H         1.10454645572301    5.77672321197997    0.95967336838569
H         2.84551329153253    6.12056326084850    0.73501713078773
H         1.64128713859161    6.95765816141689   -0.25199630071699
C         0.37502381584524    8.31387598590096    1.74620588136536
H        -0.38441420443206    7.58947274959842    2.04231639280236
H         0.15434399710270    8.65074415009865    0.73390758237340
H         0.31332973850321    9.17504431562733    2.40743762580497
C         1.88455260523491    7.62045130230132    5.01881526916830
C         0.46830408859954    8.14926681573416    5.23580031132099
H        -0.26210244057030    7.37059005918172    5.01118169653534
H         0.26460540029699    9.00879790739517    4.60225587467716
H         0.33771123423983    8.45646626621782    6.27285401469632
C         2.94161712919371    8.71408808998844    5.11611390000928
H         3.90429069726531    8.33879444787861    4.76953907341812
H         3.04456905700304    9.04273105514813    6.14969409676002
H         2.66766123326712    9.57671924631800    4.51327839998436
C         2.16606738635101    6.50107487130981    6.03120776092784
H         3.19988990196574    6.16143251576238    5.95005931753711
H         1.49212539283368    5.64410165742532    5.85008033400858
H         1.99989801738425    6.85488770517055    7.04770672904278
C        -0.67008427956185    1.75155569880895    3.43621369115329
H        -1.20278204718260    2.30074333985927    4.20877702075637
H        -0.78671553023126    0.67973099422145    3.58293799777344
H        -1.10081455675898    2.04521154736411    2.48078005826056
C         1.73024276460853    1.39864816999945    1.89654001567504
C         1.44590906494442    2.45822339451728    0.82150858908541
H         2.01230944922657    3.37594035432077    1.04422664261550
H         0.38305717157590    2.70669952939236    0.78449267524083
H         1.74719542483481    2.09936474777968   -0.16174315379652
C         1.02859251505690    0.08747264083433    1.54943974136505
H        -0.02160968766251    0.24233447672342    1.31830020923942
H         1.10734247260285   -0.63224672546515    2.36063955633179
H         1.50144258012395   -0.34756792500439    0.66935907793758
C         3.23716681542558    1.17540652296757    1.96935069905095
H         3.73220250817982    2.09194163629998    2.28107939639652
H         3.62073572380556    0.90079096252336    0.98687656749668
H         3.48733994985582    0.37459925931474    2.66190969491785
C         1.67917949469100    1.48384176758245    5.09271164853663
C         0.80333980539487    2.17807667744312    6.14458827767964
H        -0.19987988433295    1.76029050439840    6.17567637779215
H         0.73201778223415    3.25207476999256    5.91592575493806
H         1.24462511063676    2.07083405502016    7.13430720853467
C         1.55377062091521   -0.03211953327376    5.18941543407435
H         0.53349752584806   -0.36428495014725    5.01197169615939
H         1.83923764753032   -0.35540999287424    6.19000584088861
H         2.21255913198221   -0.52601750366375    4.47855203352958
C         3.12244232972963    1.91694074512067    5.34406890380060
H         3.20458459777819    3.00252947933781    5.24090801063956
H         3.81265521519439    1.44389757357519    4.65190640371756
H         3.42366755221747    1.64660440909923    6.35572733782173

