68
CSD_code = YOYFEX | q = 0 | S = 0 | Stoichiometry = C28H33ClO3P2Ru | MND = 6
Ru        3.36708152042413    2.77927398989450    3.12855101438031
Cl        5.25827559643796    1.63271727122028    2.17246285116295
P         4.78506794291973    4.24612690820471    4.15797940737403
P         2.34473531975448    1.34812665902435    1.66717580466381
O         1.35283313213113    4.71318365017725    2.74570671087043
O         1.66292870469221    5.88630150307104    0.85851013189798
O         3.33860324632816    0.73347025223237    5.32768705876891
C         6.29220540636030    4.67982452912159    3.22049683375308
C         4.14276507647993    5.90877801302973    4.57391378391644
C         5.49533974009392    3.63185288515461    5.71598097840173
C         6.22692449689468    2.44852670982825    5.62495690428380
C         6.76589703321909    1.87430728116434    6.75940231802110
C         6.56873112522206    2.46893586275241    7.99635077372833
C         5.83054271229599    3.63560938361926    8.09328266355009
C         5.29139431684346    4.21843613203449    6.95842072625873
C         2.62347752128844   -0.44165980174898    1.92814322194810
C         2.75393617035837    1.47955929150155   -0.10550132860582
C         0.52637969562764    1.43814793379167    1.72763832186865
C        -0.06797053614088    1.09132449179131    2.93897340514530
C        -1.43800864835705    1.16240350640594    3.09431818780161
C        -2.22912840544688    1.60339998283460    2.04452315532754
C        -1.64331373753748    1.97253644786224    0.84628078489891
C        -0.27013839225013    1.89047058823536    0.68443046010244
C         1.77328788634252    3.80320651564391    3.60128877387231
C         0.89194688435643    3.69043064811726    4.75847304073297
C        -0.48606674859738    3.88752292576904    4.62485123742291
C        -1.32090381939938    3.74366921533663    5.71530228920410
C        -0.79688020768294    3.42685846846201    6.95839257588637
C         0.57190427045549    3.26124265123198    7.10924420974961
C         1.41035223123855    3.38599790238070    6.01995506383551
C         2.18280822788590    4.88970200199082    1.65324568440983
C         2.45157582414336    6.27474093126519   -0.24387157815279
C         1.75119939697265    7.42812635056622   -0.94256390715243
C         3.28948168239015    4.15433146914797    1.57589297203268
C         3.33075874968276    1.54352439479635    4.51178607288831
H         6.76898268133993    3.76039540502592    2.87986816863429
H         5.99872492090640    5.26599595271006    2.34942781053223
H         6.97443889107359    5.25251475520122    3.85037267615774
H         4.92233157387677    6.51291778175913    5.03919524547301
H         3.81959162737069    6.38293985529040    3.64601507868421
H         3.28176034590802    5.82305905864951    5.23663087771062
H         6.35340811892044    1.97746974956078    4.65718910192187
H         7.33272609519706    0.95827021330226    6.68287314372234
H         6.98372373657135    2.01791849707482    8.88577283366493
H         5.66861852247010    4.09433332847217    9.05829706112336
H         4.70956118848340    5.12399342455384    7.04923623381398
H         2.33370230037990   -0.72377505494162    2.93982616297626
H         2.04354865927815   -1.01607006470197    1.20432357335642
H         3.68924421992702   -0.63474271028218    1.79679840033747
H         3.83066653839419    1.32651252626440   -0.19623218446111
H         2.21724779198936    0.71266196620092   -0.66622198393546
H         2.50400715824603    2.47078167328381   -0.48040231311478
H         0.56037278057033    0.77779027980369    3.76429120882192
H        -1.88936993244380    0.88551162684429    4.03577033887057
H        -3.30069058153296    1.66653002600001    2.16457094068522
H        -2.25793205479347    2.32751839250129    0.03149238387910
H         0.17433476838449    2.18315482565042   -0.25529253581764
H        -0.88872248463433    4.13283991532088    3.65341737971415
H        -2.38578608164600    3.88212962999321    5.59696608579841
H        -1.45177023338742    3.31542596022027    7.81000854020731
H         0.98485042694634    3.03137328007332    8.08045186521857
H         2.48128764681111    3.27583173473722    6.13724297957226
H         3.45005677458768    6.58375723513606    0.09979301503298
H         2.57669105737840    5.42786699819152   -0.93504386167762
H         1.62688559065212    8.25800924258008   -0.25227938340787
H         2.34011122463296    7.75541107786501   -1.79477316585837
H         0.76909671613548    7.11327395038199   -1.28423982563799
H         3.93827659658657    4.32059252140155    0.71557354374977

