107
CSD_code = YOYYUG | q = 1 | S = 0 | Stoichiometry = C52H48Cl2P4Rh(1+) | MND = 6
Rh        9.31439748504746   -0.00200122693424   16.65475536574635
Cl       11.25847504745579    0.55032606655383   15.48318702640775
P         8.15010992180289    1.30840201322984   15.14321514954197
P         9.29379557927678   -1.48086347960482   14.82753154089819
C         6.38149037856782    0.93428684180485   15.04200929480640
C         5.84055640081391    0.10895645583910   14.06262952340377
C         4.49144100848786   -0.19837744498458   14.08828713527890
C         3.67922719136507    0.30471682421536   15.09042609382425
C         4.21567402257045    1.12325784448356   16.07245728462058
C         5.56116517101814    1.43357179104098   16.05292626954450
C         8.25934807435305    3.12085121305290   15.15030254136440
C         7.17750840756102    3.94225434929827   14.85510388665613
C         7.35465821104366    5.31371930555361   14.80055207737229
C         8.60282352505858    5.86961423005116   15.02857002901621
C         9.68522130598705    5.05153189010008   15.31232425003035
C         9.51451816415254    3.68143516327980   15.37603676985331
C        10.71580855769034   -2.59815780394208   14.59594082329215
C        10.60037212472423   -3.90802178342715   15.06034861539505
C        11.65690129148786   -4.79074792491511   14.94253368883629
C        12.84281482387986   -4.38171658723113   14.35452173006507
C        12.96240608817993   -3.08561034375652   13.88202168844173
C        11.91041618760390   -2.19432963646716   14.00480002367151
C         7.91483880659313   -2.63363642167293   14.48612720586161
C         8.03398759390346   -3.45945634013233   13.36688462896831
C         7.00577313735722   -4.31260550084337   13.02035252624320
C         5.84547852038271   -4.34956228202559   13.78039352875705
C         5.72034489901145   -3.52778012152228   14.88538587379219
C         6.75006174720753   -2.67055775958936   15.23850021860739
C         8.83795843499527    0.97437135873039   13.46465894327338
C         9.24728486174669   -0.48242115809066   13.25366710662233
H         6.46136291720733   -0.29901862222461   13.27906927852059
H         4.07699869922189   -0.83903252125417   13.32444398406075
H         2.62882870147238    0.05765242820715   15.10808626766815
H         3.58664642682278    1.51537599084389   16.85715495177142
H         5.98855600767511    2.06560700703661   16.81895528120898
H         6.20313178373982    3.51589707295581   14.66699028109712
H         6.51299235818242    5.95023620572016   14.57292409093862
H         8.73313937583575    6.94005297964560   14.98207406464993
H        10.66052705867198    5.48038219504861   15.48808016294611
H        10.35396125132598    3.03934325080046   15.60618168401594
H         9.67282426291706   -4.23934818102357   15.50329774069110
H        11.54975142813111   -5.80060586304716   15.30813584343670
H        13.66770992865216   -5.07103955317623   14.26057589486843
H        13.88067089073473   -2.76071047467314   13.41646252868214
H        12.04193304360322   -1.18260197622442   13.65302453154641
H         8.93900082387590   -3.43748714517161   12.77370869346153
H         7.10794080234006   -4.95061584752288   12.15544088902234
H         5.04388057562551   -5.01840637800203   13.50667185160741
H         4.81868820479291   -3.54624868489804   15.47862232094526
H         6.63395024399379   -2.02758565264944   16.09560767140008
H         8.10186897795086    1.30921309803989   12.72692984555418
H         9.71020059769980    1.63054422061629   13.38175292583706
H        10.23582436097375   -0.53032400333162   12.79238251458478
H         8.54862249112006   -0.99580256607761   12.58719197507122
Cl        7.37172363865065   -0.55634175078969   17.82479094557021
P        10.47992333282482   -1.30920824242887   18.16611793233846
P         9.33380017483881    1.47962191395940   18.48042346220123
C        12.24779450189305   -0.93144379897788   18.26599630611767
C        10.37411921687766   -3.12177181093623   18.16141893741131
C         9.79179734445805   -0.97494287091128   19.84446372300968
C         7.91059367590299    2.59498350031468   18.71388255531384
C        10.71223442386558    2.63305998236937   18.82157060352814
C         9.38147346200807    0.48164466166260   20.05456844361554
C        12.78855189795344   -0.10514391110260   19.24462289383035
C        13.06728393137662   -1.42771107939330   17.25283560840565
C        11.45839709638687   -3.94034941490785   18.45550241868684
C         9.11947287478866   -3.68522360243103   17.93991698595945
H        10.52830295805901   -1.30887296982071   20.58221174548912
H         8.92008545321705   -1.63175033776864   19.92788027455294
C         8.02387754071707    3.90576347050685   18.25169256936546
C         6.71673290000564    2.18830837148726   19.30463371962578
C        10.59330440476512    3.45925521385826   19.94054540437672
C        11.87697431700171    2.66967652937299   18.06905959469395
H         8.39294316840792    0.52901713486075   20.51591495287906
H        10.07974174619718    0.99578721032377   20.72087634829848
C        14.13653004294359    0.20695765873716   19.21534746861484
H        12.16857508438605    0.29990295978742   20.03035869018238
C        14.41155638686531   -1.11254574752157   17.22962945381788
H        12.63992813118406   -2.06116368427718   16.48792035530860
C        11.28417196213556   -5.31202391465537   18.51368902355343
H        12.43234586731366   -3.51153011348312   18.64014985658833
C         8.95171743271010   -5.05550944163668   18.00749609882060
H         8.27822045577784   -3.04521524012331   17.71024091611085
C         6.96600284008351    4.78663168874377   18.37139098142088
H         8.95071783404781    4.23928381459262   17.80896037386722
C         5.66343784567088    3.07769757980748   19.42934416003188
H         6.58661172454399    1.17570159322602   19.65430118307835
C        11.62162671983647    4.31252394038466   20.28656673062576
H         9.68838844948952    3.43756699290578   20.53386209877430
C        12.90671847522080    3.52708785252243   18.42157368421890
H        11.99309906483411    2.02609937125355   17.21241062169075
C        14.94763080077056   -0.29221656189080   18.21037867546012
H        14.55087487378208    0.84859425027522   19.97841918616495
H        15.03975685316918   -1.50193733310110   16.44292957862895
C        10.03643483876596   -5.87079568949917   18.29052185662701
H        12.12775009586577   -5.94630959359993   18.74044753980052
H         7.97682126649237   -5.48679839835291   17.83552358291777
C         5.78097720553002    4.37486162624846   18.95927722738126
H         7.07150355198313    5.79724773828145   18.00744542007030
H         4.74584371991202    2.75047614069512   19.89458650939004
C        12.78177750679066    4.34922780130869   19.52631620621904
H        11.51967266086623    4.95082603354949   21.15128925563302
H        13.80831129028187    3.54525386350813   17.82823519142350
H        15.99690496857241   -0.04066146919267   18.18942653028035
H         9.90828842758518   -6.94135794035773   18.34014118597085
H         4.95522255659734    5.06287773753108   19.05511256182233
H        13.58348482390890    5.01806177335654   19.79976625645372

