49
CSD_code = YOZCUL | q = 0 | S = 0 | Stoichiometry = C20H26Cl2Hf | MND = 12
Hf       -2.26933138231938   -1.35899000345225   -2.05152912277369
Cl       -2.96454441290952    0.80873449173114   -1.74415360833296
Cl       -0.14869105454146   -0.67226217472223   -2.63503006506721
C        -1.57183057103264   -3.26125776200960   -0.70080397954362
H        -1.07814959462080   -4.13164733662130   -1.10905676430555
C        -0.92097768189886   -2.24926026264148    0.03542231048198
H         0.13705820310294   -2.20694353529358    0.24603541380043
C        -1.89839546555405   -1.38783299739067    0.55428093942153
H        -1.72548572037733   -0.57295296493853    1.24182712185417
C        -3.16908298581434   -1.86350836673041    0.15090943392781
H        -4.09886575720521   -1.49917967552614    0.56114735145864
C        -2.97908526439890   -3.05346456813732   -0.61011532756166
C        -3.99497097346363   -3.70480632091498   -1.55362888138546
C        -3.61517174154883   -3.08835691877304   -2.89565847209581
C        -2.37059673992540   -3.23816971848783   -3.57137921696866
H        -1.70813590251194   -4.09075031335661   -3.52219936858836
C        -2.24645329133890   -2.17644616525818   -4.49403951065662
H        -1.47092775417724   -2.07875678259849   -5.23990610653793
C        -3.38034513318946   -1.34645245808332   -4.37499463320854
H        -3.61517796557079   -0.51392667096668   -5.02231876273597
C        -4.23605697271948   -1.90547342322538   -3.38933328494747
C        -5.67655000495194   -1.58523076959467   -3.08289804313942
C        -5.88497903859130   -1.91004472005036   -1.59203544662376
H        -5.33951622941921   -1.15068073387721   -1.02583952101663
H        -6.94391639684994   -1.80565824148584   -1.34368179607764
C        -5.44341635691802   -3.32191930579780   -1.18733175480815
H        -6.11367710502431   -4.04068287266711   -1.66241753028410
H        -5.56969033112366   -3.43827561952517   -0.10837780435508
C        -3.85763240398759   -5.23161727394818   -1.54797870604566
H        -4.11192987177987   -5.62511991726447   -0.56660597835644
H        -2.84290347216420   -5.53614873862958   -1.78537955601357
H        -4.52447379838616   -5.67222970735575   -2.28562183889357
C        -6.00360973054354   -0.10835969764136   -3.31500724102588
H        -7.03999697163459    0.08817953595990   -3.04899817380187
H        -5.86130338704094    0.16417464186089   -4.35576226544605
H        -5.36216653769524    0.52524382824800   -2.70629994321043
C        -6.59760004126355   -2.47933026492466   -3.94721463304811
H        -6.36224035617269   -3.52435488367648   -3.74064441839518
H        -7.62789888508461   -2.29446949851556   -3.63902434012943
C        -6.46789255929244   -2.26510014192680   -5.45401004470808
H        -5.41126138903721   -2.30234060827410   -5.72547482699227
H        -6.85652978858498   -1.28423141453008   -5.73085915599951
C        -7.21269327337955   -3.32996819443994   -6.26077447305712
H        -6.96280250922081   -3.20142295107202   -7.31639381256905
H        -6.86525766752859   -4.32107682306303   -5.95997764088885
C        -8.72694842618781   -3.25292518602488   -6.10320184388395
H        -9.21187589716255   -3.97193356192321   -6.75939618142160
H        -9.08580513650104   -2.25902973169764   -6.36169540974479
H        -9.02671427246263   -3.47264322076758   -5.08197308630219

