49
CSD_code = YOZDOG | q = 0 | S = 0 | Stoichiometry = C18H24MnO5P | MND = 8
Mn        6.52333301621546    3.95171132240857   -0.02005524285621
P         7.01228346986780    2.01547536834675    0.90783609476695
O         6.72942967361054    0.63773683391906    0.07221309817043
C         7.04672483612677    0.56029073028756   -1.30617822256629
O         8.56712257130283    1.90023023146104    1.30734375900797
C         9.10641407579336    0.72190687103357    1.90811197124629
O         6.39517932387434    1.47444142182189    2.29993620328522
C         5.06516326138913    1.03098049807781    2.48209214211952
C         7.65299114693198    3.78354522519896   -1.33969071120958
O         8.29718073434868    3.61392693321590   -2.29663017795990
C         5.11460701199311    5.13915266068438   -1.14526188797710
C         4.88244562952457    5.41037772635206    0.22788470254053
C         4.51286523777768    4.21604776942340    0.85240128751280
C         4.47722960897052    3.19844465045139   -0.13317673025209
C         4.82247129995469    3.77048164318926   -1.36832747665642
C         7.68498951072924    4.86780697993341    1.13737964238057
O         8.98799268712918    5.10001110608853    1.25250427294260
C         9.92749057906453    4.63272299140053    0.29146557294886
C        11.31995146616853    4.85215817352109    0.86227804066041
C         7.05075526917479    5.54344812598350    2.30971946533145
C         6.52438499235438    4.80440107146279    3.36549919222430
C         5.94202014668200    5.44316945861727    4.44524760090102
C         5.88247051749419    6.82629156310837    4.48868590164331
C         6.43031521469067    7.56980057917797    3.45617076715977
C         7.02233453034244    6.93508440081007    2.37981384029109
H         6.70964604288018   -0.41829282301098   -1.64826295812762
H         6.53795291029707    1.34792811004118   -1.86601046100427
H         8.12207100839255    0.66137456664071   -1.46394677127015
H        10.15843027541040    0.68042283648784    1.62758876059961
H         9.01473329906367    0.78222723994403    2.99257045469326
H         8.59046281901358   -0.17069425094565    1.55145852526363
H         5.05601695283451    0.46092939474125    3.41214393182171
H         4.37803553904897    1.87433787163190    2.57423012246870
H         4.75059750492134    0.38505906242537    1.66135526571669
H         5.25590582425207    5.88475933979136   -1.91822935004253
H         4.87958018135348    6.39155358419768    0.68237313320725
H         4.16413874953883    4.12570295096207    1.87221381930420
H         4.07829501212881    2.20000202867399    0.00208840704914
H         4.74776275697237    3.29143996139368   -2.33612079348688
H         9.79105840728294    5.19817309257777   -0.63889763777515
H         9.74002699675529    3.57009312760797    0.09728073832721
H        12.06697142916120    4.51980904670858    0.14796696183599
H        11.47526487565186    5.90620209225488    1.07541668281043
H        11.43282547138080    4.29078970720190    1.78528152027207
H         6.59178299139593    3.72597257577408    3.33473531222227
H         5.53410142118348    4.85975300543795    5.25895441014102
H         5.41852214409176    7.32324756635417    5.32834685436510
H         6.39893509189271    8.64945032608581    3.49269399619177
H         7.45103648358394    7.51071525104809    1.57200596976129

