56
CSD_code = YOZFOJ | q = 0 | S = 0 | Stoichiometry = C22H28ClN2NbO2 | MND = 7
C         9.40105295709200    4.80813679358272   -1.80870789889755
C        10.48709016460098    5.38434140173604   -1.39148562852863
C         8.71729625741619    4.64493116646008   -3.12969881364642
H         9.28134449473327    5.16460514380656   -3.90606992090191
H         7.70785420359939    5.05901716628657   -3.10193679988553
H         8.64703760118475    3.59032380871038   -3.40275303423893
C        11.62667335036147    6.17189409768920   -1.93294793276387
H        11.65784403986478    6.10221847732265   -3.02188777087555
H        12.56570496475803    5.80659820151247   -1.51869746134850
H        11.51940170851905    7.21809999144400   -1.64436983071250
C         6.99291434488937    2.61755553828940    1.76574358222275
H         7.47108777388693    1.63575642143676    1.83325464566374
H         5.90595662163985    2.46929950668501    1.87407126764302
C         7.47635771480653    3.48570300458271    2.93079481445227
H         6.89916429272416    4.41364351781298    2.94801471045669
H         7.26838552760552    2.94434885478671    3.87057971652212
C         9.73654810358063    2.70422301090332    3.24348348761394
H         9.57164258254113    2.44553365124150    4.30049132976841
H        10.78363156249209    2.97837383659169    3.10523276515007
H         9.52727550442478    1.82442725525674    2.63520915786972
C         9.18455510775997    4.95499642661897    3.72644823478493
H         8.58963711801092    5.82251540944827    3.43814022923416
H        10.23986836397864    5.21478061930984    3.63910772583397
H         8.95960308594993    4.70404973194364    4.77338177607076
C         7.20776851722032    6.20202738209960    1.11409323862759
C         6.99291567773794    7.39489392321018    1.81809790206728
H         7.84736524513203    8.03027403019450    2.00903894335404
C         5.72914736218698    7.74309319687770    2.25089973492420
H         5.58462647549039    8.66574451198671    2.79282261758034
C         4.65198351601612    6.91174901935806    1.99343105613482
H         3.66330166793290    7.17851930803423    2.33329156803228
C         4.84751295166940    5.73635352001590    1.28705604597740
H         4.00153764131490    5.09618510683477    1.07581539710313
C         6.10404083492867    5.36192786509861    0.83780945878529
C         6.27488691568605    4.12243496918046   -0.00337195273874
H         6.56259462858946    4.44277959751929   -1.01270873849893
H         5.29946124636079    3.60760660141243   -0.07092524814231
C         9.79212382597745    1.47849277879586    0.08861532657321
C        10.76585875694620    0.50054881179857    0.33666318126941
H        11.76883794184544    0.83546862491323    0.56228409858418
C        10.44723141786498   -0.84106598175877    0.29228157917077
H        11.21116990323550   -1.57930067809147    0.48509865490676
C         9.15221416555874   -1.24012180012699    0.00382680325242
H         8.89871721221216   -2.28837263731509   -0.02961998777132
C         8.18077253366073   -0.28528107114699   -0.24502621464352
H         7.17139552638400   -0.59904370171011   -0.47507043766437
C         8.47264517075408    1.06978388139832   -0.21268066739481
C         7.41081466119849    2.09070321404776   -0.53826995714631
H         7.65331632630882    2.55057706631914   -1.50260068491103
H         6.43965269168657    1.57421171230030   -0.63681858727128
N         7.30330036631300    3.17691151524800    0.44851313795608
N         8.89652726066821    3.82905093238140    2.83943126156397
O         8.41436499388805    5.84209428240569    0.75124299258152
O        10.08801221819949    2.75274478940695    0.16051697969120
Cl       11.59171640629734    5.13447466395582    1.49873070179578
Nb        9.55565849431646    4.48386153189862    0.34723344476443

