90
CSD_code = YOZFEZ | q = 1 | S = 0 | Stoichiometry = C30H55N2NiP2(1+) | MND = 4
Ni        8.23796448028710    4.20238696786959   17.38784965042570
P         9.39661233786593    2.70077850126692   16.22446170641532
P         6.71079083332429    5.54266525682089   18.32214685097321
N         9.70244172507355    5.33621222673215   17.73252798776807
N        12.21635712700229    5.34422539656201   20.24727014004283
H        11.93746975552067    4.40521991088700   20.00618734877684
C         8.24931369538266    1.26769611663989   16.04461035487399
H         8.40889780137920    0.71784997845144   15.11612915718580
H         8.43300710673273    0.59236417223846   16.88164435552051
C         6.83709351640548    1.82600317513444   16.16158122823279
H         6.14105493545887    1.01987716573312   16.41913651086675
H         6.50363068781162    2.23865804350306   15.20986200136826
C         6.75335903129511    2.90688672146699   17.24373231398759
H         6.96216472131116    2.43991482899515   18.22929438286643
C         5.33039941947312    3.47087779905054   17.25521989339832
H         4.62894096848672    2.64765863084657   17.43193653542564
H         5.09303495892585    3.88287330614732   16.27427980239061
C         5.16851316574419    4.52819573932859   18.33915403345109
H         5.10705092287117    4.03283169082741   19.30902479449902
H         4.27115235821564    5.13307666280359   18.20314881939968
C         9.81415122405518    3.24343489156741   14.46430072561693
C        10.62662893032381    2.22646546724947   13.67232486221357
H        10.17659118491313    1.23678151121441   13.71102885588130
H        11.65038099615736    2.16366199239864   14.03153613472723
H        10.66252568092013    2.53362360220526   12.62808977298000
C         8.46241515981533    3.47693745191801   13.78410519811823
H         7.81390278236931    4.06799548113644   14.43611676517208
H         7.97003508901681    2.53962101715422   13.53988288790047
H         8.60259988455464    4.03032881778012   12.85738705246109
C        10.54040698044662    4.58839015386911   14.52347036873253
H        10.67968293233663    4.97456833385720   13.51523515163715
H        11.51855007827501    4.50702428501614   14.98729617046386
H         9.94332751646576    5.30945874077994   15.08298497811869
C        10.87854823235957    1.93814501496582   17.12423100032381
C        11.25258778122998    0.53910675159759   16.63926895334691
H        12.08049820409784    0.16896227961738   17.24256732532292
H        11.57491893532647    0.54426021656484   15.60315520135787
H        10.43287490329672   -0.16568319807960   16.74237087706980
C        10.42104981654957    1.87190098921945   18.58698220151661
H        11.23980197448971    1.55252399306278   19.22971593190114
H         9.60429324706238    1.16447467113852   18.71549425126708
H        10.07539960054308    2.85354860875637   18.92426812651975
C        12.10596937369786    2.84474339084244   17.03261809897623
H        11.84684493020264    3.87406757576002   17.26915849583044
H        12.54821752838974    2.81043662149963   16.04049687419077
H        12.86348433905398    2.50818061580788   17.74004567107389
C         6.28323457441943    7.07679252570333   17.30770310364010
C         5.73101272910399    6.54769987873492   15.98126796365088
H         5.69037975691760    7.35141026959879   15.24839495194426
H         4.72637565858768    6.14941830710409   16.09423325304939
H         6.38721670369521    5.76632174814053   15.58948938906742
C         5.26319756207709    7.99293217966313   17.97258311283237
H         5.69705693669258    8.52572464656500   18.81460234999676
H         4.39091725702486    7.44069986175021   18.31525260601225
H         4.92460905879123    8.73533577197026   17.25126844780755
C         7.57192061080312    7.84142989256212   17.00105981923353
H         7.34891310807407    8.69560710367637   16.36409079926303
H         8.27119473780745    7.19603240530368   16.46945872474299
H         8.05234937930924    8.21050830612499   17.90234841853726
C         6.97650922757855    5.92010786275113   20.15819180429693
C         7.55070695514008    4.61006419796843   20.71078697649562
H         7.91048018649488    4.75461769344842   21.72686192958839
H         8.39399034208656    4.27691660346387   20.09790312765086
H         6.80322574760801    3.81975374728808   20.72587491359804
C         8.01077294334235    7.02682987105619   20.35699524178812
H         7.62015824057927    7.99525579093499   20.05554808351921
H         8.91809826022558    6.81513493768982   19.79792006719414
H         8.28015111937729    7.09060139403143   21.41034260574585
C         5.70415270601299    6.28566051516692   20.91939510868266
H         4.92521655912631    5.53651437304885   20.81191890386488
H         5.30641156072589    7.24448841242913   20.60357954227497
H         5.94510740740638    6.36014133459355   21.97886064523668
C        10.55831986921634    6.06109693524937   17.99179012122097
C        11.62321119325515    6.92040268644637   18.38512283777582
H        11.20890058703211    7.70217614805698   19.02914236460201
H        12.06583235029298    7.38699404587936   17.50240174270976
C        12.72383127665181    6.13960531264427   19.17619828546589
H        13.26553585709514    5.48551925497586   18.48991444753472
H        13.42880420752474    6.87903050989084   19.56469892752361
C        11.55581399278782    5.86643809886260   21.34833294808593
C        11.64432102306860    7.20841834514782   21.71605823370097
H        12.24574988880672    7.89962249673757   21.14551122234495
C        10.98700195299978    7.66688133695263   22.84350911559586
H        11.06854792591866    8.70883388933077   23.11422191242119
C        10.23491413848297    6.80668647792085   23.62377086012161
H         9.72644106039692    7.17136780040757   24.50231237130050
C        10.15425717990847    5.46875746309683   23.27188899795574
H         9.58523387087605    4.78238298525401   23.88173115468202
C        10.80052708947091    5.00358726072108   22.14461580737783
H        10.73726035269751    3.95798775343313   21.87601695928125

