97
CSD_code = YOZKEE | q = 0 | S = 0 | Stoichiometry = C34H52I2N4O4Pd | MND = 4
Pd        1.49696635085817   -0.43737936282399    4.79129903776332
I         3.84966188971826   -0.71605411603590    3.68115249775510
I         0.53071385503010   -2.74117067190448    4.01353545484085
C         3.27005203474364    0.87248242618966    7.36129092895710
H         2.64886387072072    0.97818457279777    8.25390185977367
H         4.30326732389047    1.09030068808523    7.62357243194796
H         3.20746655028078   -0.15684151832917    6.97907519600794
C         1.53109302360760    2.35488684552065    3.06642883277753
H         1.31160625828709    1.29766514365380    2.83645268382874
H         2.28804771150013    2.71165464841294    2.36767962430037
H         0.63081298784289    2.96055294383850    2.95031543291923
N         2.84054673953963    1.77009083329961    6.32208360656140
C         2.13272517559635    1.38540941739761    5.24671559210609
N         2.04267390349665    2.43516054266353    4.41039844155260
C         2.69065768366069    3.52169125980443    4.96060633403802
C         2.87074615550695    4.83205378063530    4.49711508920541
O         2.31269304010649    5.16458521840079    3.30152149133350
C         2.50728819390769    6.47677155814620    2.81000935764813
H         3.57901352488216    6.68839485089951    2.71390013977903
H         2.06841927572659    7.20445229827028    3.50729471458455
C         1.81461428896724    6.57663290117695    1.45422585640091
H         1.81993476442480    7.62204457204359    1.14050504098779
H         0.77677001803160    6.26416538477189    1.58455951181016
C         2.47106097599072    5.70861964018029    0.37941073632677
H         2.59310919592851    4.69641713768731    0.76725684517666
H         1.79870917216444    5.65664572468443   -0.47911588235407
C         3.81992618971023    6.24615624579163   -0.08312860055029
H         3.71953143886840    7.26506195685622   -0.45191817030605
H         4.21243304579714    5.62792188405236   -0.88653093641348
H         4.54583796962309    6.24245522909910    0.72601521352671
C         3.59684629108434    5.66877110906888    5.32493506348499
H         3.78076759557268    6.69047508810456    5.03646805620754
C         4.11537596033318    5.24104466932982    6.54995138289467
H         4.66952151780738    5.95796720864281    7.13291119213301
C         3.93699750018988    3.95307867284964    7.02048947710652
O         4.39418645436987    3.45723120906654    8.20386316819399
C         5.15028977541025    4.30658841348010    9.04430000499131
H         4.53842154393269    5.16641814122916    9.35176214890146
H         6.03525161771805    4.67600327739379    8.50912645205895
C         5.57547232489381    3.49839228337147   10.26578713055913
H         6.00143107365698    4.18227128946542   11.00193398824494
H         4.68737347687675    3.03688379552409   10.70138024319955
C         6.59433667337658    2.41630691856979    9.91433008846775
H         7.48777134869826    2.88526556018938    9.49618668331389
H         6.17225181394597    1.76383605998236    9.14865032912858
C         6.97847289986605    1.58815760469052   11.13319661988277
H         7.41735332381231    2.22056710915072   11.90189177751307
H         7.70317551567073    0.82515848805211   10.86097798200511
H         6.10373451087053    1.09624954267888   11.55281223382020
C         3.20446489568567    3.09462529433037    6.18900372273850
C        -1.58697380608828    0.71792983892726    4.01135090395642
H        -1.56649412839616    1.81058048681489    4.00228665223559
H        -2.55095696424914    0.38120104763530    3.63650635821818
H        -0.79128837059048    0.32243562048921    3.36337464349739
N        -1.38460325106275    0.20894706327990    5.34215819250968
C        -0.21045654270476   -0.26787638838352    5.78917248539065
N        -0.41232674683434   -0.79163186814940    7.01152770584422
C        -1.73659019422696   -0.64127771850700    7.36616406755605
C        -2.43993991804666   -1.01188454728593    8.52018994512867
O        -1.74081361512127   -1.61563550931524    9.52121202212021
C        -2.43915737638706   -2.02950570366271   10.67856469567146
H        -3.23376226924201   -2.73758024674425   10.40747306605565
H        -2.89703195233136   -1.16157075144042   11.17403504844834
C        -1.43370285463003   -2.69785929811917   11.60949048288218
H        -0.63738085839110   -1.98536593184817   11.83253542668279
H        -0.98555799378764   -3.54626539414460   11.08950082121887
C        -2.08731105021703   -3.16906505067271   12.90531458554338
H        -2.53948960847744   -2.31482586641894   13.41449307371822
H        -2.88601362435040   -3.87622282919508   12.67110862775129
C        -1.07625822054429   -3.83413365595888   13.83088696195497
H        -0.62961755569506   -4.69946282287436   13.34721848875085
H        -1.55789039871456   -4.16360804830566   14.74816761046583
H        -0.28123831124768   -3.13878424172756   14.09057686255679
C        -3.78940728969480   -0.71105212315210    8.52650727754956
H        -4.39807267237241   -0.96999385189468    9.37703642946622
C        -4.41625733124564   -0.07182389233936    7.45340767178707
H        -5.47225962259390    0.12442637807875    7.53878423829882
C        -3.73080464504946    0.30460369580446    6.31310951298159
O        -4.25812823354166    0.93906748460923    5.22809124761908
C        -5.64389067486479    1.21808577425433    5.21523336278949
H        -5.90128021876447    1.89112266888192    6.04515816651131
H        -6.21778204367386    0.28824870690839    5.32679281068999
C        -5.96890180426620    1.87988519707765    3.88078999040456
H        -5.69400078718322    1.19682142729720    3.07518505024890
H        -5.35825546227110    2.77895837190210    3.77863320186132
C        -7.44762572288068    2.24045559390479    3.77350999228537
H        -8.04898119046027    1.33543335471656    3.88323512883006
H        -7.71514859675273    2.91714425934098    4.58838757644889
C        -7.76617270511677    2.90208990715595    2.43865408140200
H        -7.18196593324268    3.81097614816014    2.31406114697503
H        -8.82047160742271    3.16126684039814    2.38395021074045
H        -7.53431743552213    2.23055644611515    1.61543184815162
C        -2.36231834655868    0.00177995994255    6.29343473319088
C         0.57051890691629   -1.55635123756110    7.73538206865745
H         1.42915550369464   -1.74652680797589    7.06796167583831
H         0.14085013814370   -2.51224729235902    8.03364035876024
H         0.90073466384970   -1.02546896414398    8.63022738327330

