84
CSD_code = YOZLAB | q = 0 | S = 0 | Stoichiometry = C35H41I2N2O2PPd | MND = 4
Pd       14.58767365578209    4.53902860249532   11.59040359822437
I        16.99513009458894    5.09487173130675   12.40384189039325
I        15.29194611442365    3.52382790147932    9.29767886127557
N        13.73897696084507    4.59946557440169   14.40070349317792
C        13.99648934381825    5.30600473458647   13.29064713611586
N        13.67159210324662    6.58740504663733   13.51325992261348
C        13.15965700419441    6.71147677065390   14.78886673529656
C        12.63348473774059    7.81080699917013   15.47935869242249
O        12.61049116070098    9.00972661364126   14.83477937595848
C        12.08448149906950   10.13256392607036   15.51514887422271
H        12.66154184744421   10.32487273796441   16.42975089464057
H        11.03741125152998    9.94821703037400   15.79437243209494
C        12.17429161685596   11.32787324957732   14.57331819954646
H        11.61842089579157   11.09808616030030   13.66224720412231
H        13.21924385200305   11.47762192688447   14.29684819619395
C        11.61896424495040   12.59663919363520   15.21392200834871
H        10.57814878866139   12.43130098303571   15.50213633000528
H        12.18290186237535   12.81962722751228   16.12225160456977
C        11.69956291095342   13.78347122679931   14.26206500415578
H        12.73154454241918   13.97473677930108   13.97773660192580
H        11.30186861631877   14.67822064083067   14.73417645608285
H        11.12625784753468   13.58795169719764   13.35870557947266
C        12.16550448654376    7.55257838651144   16.75494497412271
H        11.74798622068022    8.34870048331024   17.34919881699388
C        12.20273408755171    6.27536407087544   17.32099122451178
H        11.81305029582579    6.16195439050492   18.31921443703325
C        12.71218072222537    5.18155300536315   16.64501932315838
O        12.76643152549494    3.90118534120889   17.09845538255596
C        12.21843527232845    3.61201256038437   18.37043059569498
H        11.16933951294016    3.93076893143218   18.40863252133339
H        12.77561839094065    4.15035724597120   19.14929395530639
C        12.33384679797341    2.10754102708488   18.59711258081932
H        13.38362260240404    1.83087947533150   18.48676058692571
H        12.02774678837974    1.88799002852770   19.62116559902573
C        11.49426867050700    1.28877875843782   17.61542361932448
H        11.71550279736045    1.62654107352510   16.60153616952153
H        11.79608344506071    0.24239392745769   17.69205285837392
C         9.99621481544679    1.39013715068818   17.87880992736959
H         9.76820353322735    1.09060514127926   18.89952202774198
H         9.44952577916747    0.73574881926828   17.20326462394700
H         9.63584310380001    2.40548555815952   17.73084007032060
C        13.20003083578386    5.43486985275060   15.35707921539858
C        13.92602800251390    7.65462247838563   12.58077986376152
H        14.49111651543211    7.24498637680441   11.72789049195892
H        14.52161548252526    8.43137656554998   13.06035455512797
H        12.99300210613382    8.09630194671129   12.22584600567635
C        14.08219709333055    3.21095820579897   14.56429331676884
H        14.66985229234438    2.89215543542061   13.68517122213223
H        13.18325372145098    2.59801575254166   14.65337665089790
H        14.68939910025400    3.08181798343970   15.46034020625829
P        12.43799867234639    4.15912430843123   11.05186659778016
C        11.81387012967964    5.38795805593540    9.87690067113934
C        10.45880992224146    5.50302099219301    9.57439198874354
H         9.74130826468450    4.84848248519778   10.05213278244444
C        10.03727409808196    6.47031558065628    8.68162303451594
H         8.98774945747854    6.55541069228116    8.43972326255487
C        10.95543004084674    7.33175562774361    8.09984127332029
H        10.61871053000261    8.08200327556601    7.40001328191163
C        12.29952657902329    7.23955052191486    8.42118663752926
H        13.01301184938802    7.91784467919189    7.97797765408699
C        12.72846592548838    6.27170736340281    9.31115788389543
H        13.78918525830508    6.19463613780553    9.56389059613412
C        12.11288842514193    2.49714873051031   10.40220680367403
C        12.89018152949187    1.48169763997897   10.95848861780557
H        13.65790888078929    1.73691789469359   11.69248690267164
C        12.72624475290091    0.17527108101122   10.54517152921596
H        13.33547549537680   -0.60812346029824   10.97071125116130
C        11.79325139874872   -0.12030017440474    9.56278585330124
H        11.67150430459005   -1.13915746429312    9.22696783542377
C        11.03633699120424    0.88947178884187    8.99367708269082
H        10.32765747296478    0.65854444115020    8.21207467906341
C        11.19026194273916    2.20137663267479    9.40937462259603
H        10.61542544141854    2.98852409079833    8.94380528428025
C        11.25178358239442    4.29498692878030   12.43338806751978
C        10.82538919554081    5.55683869608685   12.84226029627506
H        11.07701171235190    6.42474701071876   12.24565057602164
C        10.08001295050055    5.70310796063087   13.99608241181762
H         9.75904532920512    6.68638017468854   14.30718414452327
C         9.75354895371210    4.59215149976053   14.75692703530813
H         9.17893883281573    4.71001705242710   15.66354522398870
C        10.15818363428466    3.33250452812837   14.34863431108604
H         9.89202235927178    2.46310852310710   14.93163941000967
C        10.90824259416665    3.18254153874190   13.19568548885630
H        11.22392854393097    2.19675843931918   12.87832699575097

