56
CSD_code = YOZMAC | q = 0 | S = 0 | Stoichiometry = C19H29I2N3O2Pd | MND = 4
Pd        3.99383899072738    2.17359465038679    3.24742498109204
I         2.94800652029126    0.07471450419674    4.39842210757908
I         4.86100180822077    4.26133095612736    1.93750747307047
C         3.61771951757876    0.74535486202515    0.31383796925359
H         4.39925055921470    0.71012634316661    1.09559762985600
H         4.01837278536370    1.24161424384210   -0.57226812068998
H         3.31823937170901   -0.26893253094585    0.05129677227313
C         0.98916811560403    3.49405008597937    3.35271544423268
H         1.88412290903657    3.54860886118393    4.00008705054133
H         0.17415768462805    3.01932927802963    3.90136253787721
H         0.68592517254228    4.50098427919767    3.06561084225951
N         1.32303789284569    2.72104393767948    2.18440675629806
C         2.50880848391561    2.12362602106934    2.00668213665492
N         2.49217284203501    1.47929147902359    0.83207732739214
C         1.26404014863038    1.66055116729525    0.22966965850910
C         0.74240826049883    1.19709660803361   -0.98571314614133
O         1.54584930240162    0.42302687574796   -1.76264723366300
C         1.04157329187181   -0.05013608762081   -2.99653721751482
H         0.74679068004516    0.79581098953146   -3.63207219381840
H         0.16173781667591   -0.68435622095209   -2.82085911308399
C         2.14601304866933   -0.85554833206330   -3.67256465132329
H         1.72520764872501   -1.35666279927487   -4.54584214139756
H         2.49410412794371   -1.61925516493471   -2.97516814864107
C         3.32066331616921    0.02466921898052   -4.09359603450827
H         2.97279477518120    0.76870403653651   -4.81388125038877
H         3.69471512499496    0.55712669404645   -3.21805140511016
C         4.44491569994536   -0.79521647650780   -4.71248006946164
H         4.82244174734743   -1.52523378967015   -4.00037347569435
H         5.26729185860298   -0.14994675074476   -5.01035717352960
H         4.09031181656958   -1.32766070353027   -5.59216469126282
C        -0.55671134373452    1.57949220528547   -1.26722278091857
H        -1.02760970098718    1.26129836663349   -2.18264888780745
C        -1.30710758715107    2.37672931956856   -0.39838469210882
H        -2.31157650835033    2.62829233155875   -0.69638213574996
C        -0.80346146507009    2.83838993190264    0.80427892965412
O        -1.45448956965135    3.61482799450004    1.71177111481264
C        -2.80027228537111    3.96936939040912    1.45488609449694
H        -3.40636312647009    3.06251070016961    1.33842169027650
H        -2.86477024529665    4.56135260296411    0.53133525450573
C        -3.28407033492776    4.79636987168226    2.64177689801700
H        -2.58307403728649    5.62133955640268    2.78202710026813
H        -3.25151602479372    4.17554424503318    3.53862790539407
C        -4.69267952829473    5.35386642394243    2.44556256960560
H        -4.90230442004507    6.04537605954855    3.26396697453890
H        -4.73058069602269    5.92339237395680    1.51425057121202
C        -5.76847969270484    4.27397365433445    2.42645929713441
H        -5.65687681271440    3.62234217209291    1.56399042193619
H        -6.75500260713054    4.72881351063469    2.37961863235644
H        -5.71422273935619    3.66710654247032    3.32720996715644
C         0.51211358245471    2.45702596460781    1.09991424620070
N         5.50214403259428    2.23176352511121    4.50836880866552
C         6.38710901693765    2.30806284232985    5.23436563789658
C         7.48936697411548    2.40089628853019    6.13781853581654
H         7.12181855172056    2.63240633195438    7.13773884864487
H         8.16493313522378    3.19029239742572    5.80712757834194
H         8.02310211432863    1.45055916111566    6.16099879899336

