56
CSD_code = YOZMEG | q = 0 | S = 0 | Stoichiometry = C19H29I2N3O2Pd | MND = 4
Pd       22.85751501512135    8.13466110557102    9.34720127689131
I        20.53261569480460    9.29849700181251    9.62169192638910
I        25.11603012464494    6.92515140878545    8.84252370582428
C        21.30414380919415    5.53696000974445    8.04356004175088
H        21.79196778168839    4.60296362829647    7.75687808646264
H        20.22074469579453    5.40055476959943    8.03775847858707
H        21.62688128653324    5.81301850887180    9.06411563273696
N        22.52027612626177    8.48714705126910    6.46105391685056
C        22.32419554287301    7.70884395478785    7.53618797792826
N        21.68145271883888    6.59756842880699    7.14647498219225
C        21.45184741191958    6.65640107053335    5.78738270612082
C        20.82737207804356    5.77698284442788    4.91023465334248
H        20.41885942706984    4.84623665816292    5.26472390096274
C        20.75224042100406    6.14977638483740    3.58102300092932
O        20.17153948217452    5.41885513165682    2.60250811249120
C        19.60671560205996    4.16413845886061    2.92205521015207
H        18.81246215048636    4.28711197222155    3.67216546145726
H        20.37762207716851    3.49505992517010    3.33033202272286
C        19.02811142857406    3.57929054015807    1.63770941915217
H        18.32878734322322    4.30285324307557    1.21640313140126
H        18.47710499833309    2.66975499026218    1.88420827031782
C        20.11725489877157    3.27321150948091    0.61241474679345
H        20.67877394574964    4.18818152681508    0.41970308837110
H        20.80704530580217    2.53454996272033    1.02767350259120
C        19.53000187704979    2.74478983127519   -0.68960996553741
H        18.96338509426488    1.83294926868881   -0.51201908202465
H        20.32032969709152    2.52380456737397   -1.40273976572891
H        18.86341457964721    3.48062511717257   -1.13342422507884
C        21.30259602922506    7.38936305579839    3.13200989187738
O        21.15328432662126    7.61195994070150    1.80458944627112
C        21.63854031002476    8.81909148854406    1.25509659240135
H        22.72448348513770    8.89777903290904    1.40845213812780
H        21.15353468044642    9.67888419800529    1.73923481841857
C        21.31934505887726    8.80853632291534   -0.23567292889889
H        20.24085072373089    8.69919261639256   -0.35844975721749
H        21.79475025826191    7.93614436613333   -0.68643619004859
C        21.79835724478087   10.08117891375589   -0.92803653908959
H        21.31979666714110   10.94735723723241   -0.46534667811433
H        22.87692361621403   10.18509490264392   -0.78915892865727
C        21.47875642308260   10.06101751878795   -2.41748320452865
H        21.96150097149775    9.21399428713876   -2.89921295956690
H        21.82794799380216   10.97307477993920   -2.89520552612533
H        20.40606130798903    9.97887826062159   -2.57589399885140
C        21.92390821851961    8.25373493092939    4.01374587404686
H        22.34370566255434    9.19152032759272    3.69268949091314
C        21.98915549895885    7.86911877280192    5.34799589217537
C        23.18191299412303    9.76459025395230    6.50844976604216
H        23.48856531531563    9.95945254185927    7.55246563984944
H        22.50464278850413   10.55703159179382    6.18295537921411
H        24.06963638143461    9.75792678718151    5.87267573041001
N        23.39141700112855    8.59153802294801   11.18703640604709
C        23.66286392442427    8.95643755521303   12.24011032729766
C        24.00350874206086    9.40718661772171   13.55195358720319
H        23.96023414692438   10.49627047705469   13.58351798116472
H        25.01148005331133    9.07555811571541   13.80262766544978
H        23.29554956170661    8.99804821327846   14.27309987012552

