40
CSD_code = YOZNUX | q = 1 | S = 0 | Stoichiometry = C17H18AuN4(1+) | MND = 2
Au        4.50216006501420    6.38147943860098    3.34483339008048
C         6.30534316591565    5.80434153231537    2.69245923626686
N         2.62748733647023    6.97227556018507    4.04018456583377
C         0.54520095558867    6.42332451040660    5.06931766817137
H        -0.10039569919790    5.67234367433495    5.49599996688677
C         1.78923209258469    6.08360065849545    4.57636537277720
H         2.12900570458975    5.05975809006246    4.61119662571006
C         2.24164213666151    8.24764456589967    3.97607293461936
H         2.94146232843655    8.94184805328871    3.53646985437110
C         1.01841521255526    8.68890389388002    4.44017420222441
H         0.74693118987327    9.73007444663969    4.36884186873106
C         0.14415129920143    7.75841577237330    5.00356535462131
C        -1.12388450363764    8.16041077313840    5.49991434199300
N         7.02515373140716    6.38801524226256    1.71972352847640
N         7.01344034690030    4.76066585767854    3.15602366645427
C         8.21846355072864    5.71870349289951    1.55079214563302
C         6.66165926022956    7.58259121411916    0.99754698751109
H         5.57265816137852    7.67347512804631    1.01769103763856
H         6.98407675388143    7.46671371584138   -0.03974053639129
C         8.20739072166303    4.66162099463609    2.47434274474813
C         7.30770819214657    8.81798145857099    1.61762587736664
H         6.97555445562374    8.94505859981134    2.64551653862586
H         7.03259243263558    9.70144437104078    1.04959432089330
H         8.39088307913298    8.72741451193293    1.61341619650111
C         6.57881092958412    3.82221904998268    4.16151009254699
H         5.84293370769450    4.32166112857636    4.79691033567976
H         7.44247442720927    3.55140858653946    4.77302675034104
C         5.96964860073534    2.57673541005972    3.52458608498812
H         5.09964248534581    2.84194329849901    2.92805975225775
H         5.66365541254612    1.87941520220102    4.29853872621336
H         6.69258454919311    2.08311281408817    2.88027900625841
C         9.29397259164909    5.91803381443610    0.69482700079088
H         9.31162809478109    6.72678520770381   -0.01738660536151
C         9.27157935400242    3.77416840568192    2.56899851563550
H         9.27156013189208    2.95954138455569    3.27471855263383
C        10.34624012448193    5.03138914612749    0.79554802394867
H        11.20081819940082    5.15112013751919    0.14891975048999
C        10.33591037215471    3.98068911690999    1.71577704054970
H        11.18270090170864    3.31438648016169    1.75769242796627
N        -2.14449185215981    8.48408526049621    5.90116665532312

