59
CSD_code = YOZVOZ | q = 0 | S = 0 | Stoichiometry = C21H27BCl2N6OTi | MND = 6
Ti        5.03366465627300    7.87990706681963    2.55452170299490
Cl        5.54253942776467    7.69461979195355    0.39029093022529
Cl        4.21695768012210    5.83368501054916    2.84685860342053
O         6.56372498970957    7.64912458153016    3.19939118128006
N         2.49226298371076    9.54886342592527    2.44980323283816
N         3.12407482964840    8.46898959986729    1.96821762243182
N         4.51420372202092   10.87632688229943    2.84171516091142
N         5.35384954263963    9.94788371225027    2.37484070719013
N         3.54840010043199    9.51261970810975    4.66202561820176
N         4.24994305715050    8.39967910624541    4.42949147863344
C         1.28117125496958    9.65615019662206    1.88650096591092
C         1.11940445481287    8.60666265287436    1.00543683564539
C         2.31035492489817    7.88714027417327    1.09450720093240
C         4.99458905196670   12.09685762741981    2.57230580900322
C         6.19524736049098   11.95238314736105    1.90532147336728
C         6.37650478185533   10.57390357494417    1.80448639694716
C         3.21470538819792    9.57415682759501    5.95724515355755
C         3.72247486598193    8.45599161140266    6.58939763853227
C         4.36706699599988    7.74486701601500    5.57872151760191
C         7.81036833725638    7.46004867544818    3.60741837610835
C         8.39933991353737    8.34873964105595    4.52871750059092
C         9.70671114913737    8.12624337162242    4.93165365883803
C        10.42917823517319    7.05244514184641    4.44634047342697
C         9.84477755675916    6.17680933269274    3.54811100615688
C         8.54365580378692    6.36054327817773    3.11178966844105
C         8.28381578010687   10.84608634024778    4.77760914825533
C         7.60148538451354    9.50993211736900    5.07850352577447
C         7.37937229123877    9.34364812261085    6.58413889597564
C         8.78346829337653    4.91165145421113    1.05017433270980
C         7.86531460000412    5.39028006690354    2.17400554669468
C         7.33457010159586    4.20388412598543    2.98689351454387
B         3.18991129131435   10.43821072300676    3.48756866647787
H         2.52843837719665   11.35512106454846    3.82397357941463
H         0.61814046135716   10.45847440868427    2.14125764590976
H         0.27011698967221    8.39200506974539    0.39072628796719
H         2.60595031825620    6.99189460439835    0.57357483247420
H         4.46446225715491   12.98129099875352    2.86293924301299
H         6.84049183461629   12.72627507409552    1.54459885063559
H         7.17744309952238   10.01517487593089    1.35003385957815
H         2.64430464984941   10.39264504311880    6.34769408610118
H         3.63744139802863    8.19365075760382    7.62344800424152
H         4.89130973332480    6.80517815187338    5.62322291429477
H        10.16697640928279    8.80036886645734    5.63838937285898
H        11.44628867648668    6.89380044923731    4.77223967609577
H        10.41340853886266    5.33574636680792    3.18347922480668
H         9.23314618067165   10.92190710326478    5.30183630072820
H         8.47090678054336   10.94545997664171    3.71081670647261
H         7.64991194903231   11.67169078389653    5.09590899404001
H         6.61939256591224    9.50634258236630    4.58515436203838
H         8.32681791441098    9.37118636602209    7.11694563779836
H         6.89537509556471    8.39205893295407    6.79261672448709
H         6.74663376364128   10.14407145570246    6.96321128633631
H         8.20199489484709    4.35518521057636    0.31920121337352
H         9.56637238457202    4.25768696046820    1.42785213851667
H         9.24466545422963    5.75890837709560    0.54778638500574
H         7.00404693352382    5.89847868151710    1.71547324374432
H         8.15088485158050    3.69378025908242    3.49624361304510
H         6.83141830410063    3.49815224646398    2.33062661687544
H         6.61555137731431    4.54883112757107    3.72864565652752

