71
CSD_code = YOZWIU | q = 0 | S = 0 | Stoichiometry = C25H37BN6OTi | MND = 6
Ti        3.18885765067652    2.12232595531383    3.71729716044410
O         3.48605634118068    2.91004672625569    5.19774958128555
N         4.32514918149976    0.45953045455270    1.40729325909213
N         3.17575012359000    1.01375662923600    1.85212762123278
N         5.76608997074489    0.38542813934509    3.43349851547326
N         4.69389326394025    0.47559702795583    4.23981096565619
N         5.82273982905849    2.37617704527580    1.94123732991378
N         5.13193930072243    3.12633398976712    2.81857223932932
C         5.11493681633580   -1.17032467782782   -0.32973005310351
C         4.07704204114107   -0.38129974349241    0.38560768797255
C         2.71545187855270   -0.36517346207014    0.15571096405092
C         2.18914278491470    0.52439880638584    1.09631557548952
C         0.74693634329031    0.87231257411381    1.22851529408064
C         8.14553386882350   -0.38500700201415    3.49463717936510
C         6.80169065371090   -0.16900908286654    4.09279027820753
C         6.37103927556497   -0.45343824555809    5.37592167538926
C         5.03962201685955   -0.02707249897752    5.42288528950043
C         4.10307977728069   -0.10874855661188    6.57794752526319
C         7.53183235943382    2.63944950244479    0.13076706575262
C         6.64407563248183    3.15396054797108    1.20707216822783
C         6.47829460245106    4.45575988437909    1.63999680468248
C         5.51982574952053    4.38870143342542    2.65870908789497
C         5.02050759220091    5.50990058502921    3.50252917433211
C         3.65071488976387    3.53780432872567    6.34824489758457
C         4.94104035271500    3.69533477928403    6.89988800063952
C         5.09322624269895    4.35799348768354    8.10667725858108
C         4.00287173185015    4.87329285718615    8.78371087067850
C         2.73736697474558    4.72570552567284    8.24441913813524
C         2.54082867591339    4.06918581715898    7.04090603282058
C         6.13892579625070    3.13790753148488    6.18555447059525
C         1.15929377641109    3.90922314645025    6.47537525856755
C         1.57583013536304    0.95689155730877    4.43965552953946
C         2.09142912598461    3.70313188616478    2.81216043800503
B         5.70132761272836    0.84545726921641    1.96966799827091
H         6.56534664796825    0.34765218448377    1.33810775576715
H         4.63655795942052   -1.80310966820654   -1.07277925868270
H         5.82484511759502   -0.51545115456493   -0.83209448487148
H         5.66793860578936   -1.79864932266275    0.36585482125763
H         2.17548517919750   -0.91658656236949   -0.58745320581990
H         0.28384326717422    0.87167615978246    0.24300442521270
H         0.23529847642478    0.12985761038996    1.84107496057108
H         0.62518621126888    1.84823478712498    1.68813315377504
H         8.56415032384526    0.55850118756448    3.14788144629394
H         8.81067545993302   -0.81344527330769    4.23970107342151
H         8.08777955481140   -1.06213980551167    2.64383924115861
H         6.93995735002560   -0.90169267676030    6.16586561780776
H         4.63774061409501   -0.44155715517011    7.46483486766588
H         3.65748172738927    0.86739977611791    6.77270358561449
H         3.30088207015982   -0.81603217794481    6.36587044494041
H         6.94893177271490    2.12744137788640   -0.63323643886296
H         8.06306399610379    3.46879476135674   -0.32871416880194
H         8.25886750239901    1.93391155985071    0.52986196906497
H         6.97875082129522    5.32984321187978    1.27468774751646
H         4.43216501886255    6.20485295409615    2.90343031514735
H         4.40415121502435    5.12466919320343    4.31310868338766
H         5.86200418577687    6.05967885502431    3.92316724525957
H         6.08656658123430    4.47171264308311    8.51810037465240
H         4.13829224122074    5.38906135739669    9.72253104192788
H         1.88014994643582    5.12900854978555    8.76525939098402
H         6.45656591376378    2.20358315157194    6.65101104558416
H         5.89657420393413    2.93800135131741    5.14125470952729
H         6.97160775902409    3.83797936789206    6.23407281873047
H         0.57440518775867    4.81248128588830    6.63995089531354
H         1.21545419871968    3.69111345085181    5.40646119873380
H         0.64567764442349    3.08192497045778    6.96802598980898
H         0.58667405177080    1.29704973089829    4.11745704735363
H         1.69382845497218   -0.07816978315087    4.09224207052344
H         1.54552269616410    0.92429717842251    5.53366569676967
H         2.33192096718296    4.67839932866923    3.24979484042937
H         2.35574374361456    3.76496181367007    1.74659862951048
H         0.99897096410256    3.61741156261678    2.86680217037792

