36
CSD_code = YOZXIV | q = 0 | S = 0 | Stoichiometry = C19H12N2O2Ru | MND = 8
Ru        4.22218262682693    8.25844891265756    2.62084367341661
C         2.63843457756740    8.96625882188777    3.26118723392789
O         1.63544604875245    9.39320796326950    3.61227774105810
C         5.12765478797452    9.80705093579742    3.07015357266867
O         5.70253931412875   10.76918377421084    3.30463450774619
C         4.61188093807957    7.57566039819014    4.47224544305586
C         4.91664227416501    6.99349396449427    5.48754249370581
N         6.69809288295853    4.77461161658701    7.80553945299452
C         6.02439395701303    4.97764481249196    8.93899349296875
C         4.94277283218566    5.85968342874525    9.01089546994648
H         4.43474072041112    5.98546357989976    9.95317328158300
C         4.55763518718341    6.54193020757561    7.87626412450375
H         3.72668037508637    7.23256764795982    7.89037654012573
C         5.26244730557249    6.33007100448561    6.68770958225072
C         6.33055645616133    5.42556715995044    6.72574557405481
H         6.91118448957694    5.22720587409895    5.83303104292734
N         5.79063669074336    4.42489685807926   11.25213074129841
C         6.46834992651897    4.23192682848330   10.12117629796783
C         7.55821457859764    3.36129430602335   10.04592225407193
H         8.06938420434923    3.24458933003945    9.10432760444330
C         7.94424131363492    2.67950203760555   11.18406639019850
H         8.78387905741568    1.99904069751197   11.15946110451857
C         7.23610379145934    2.88398652115579   12.35947065447560
H         7.50364171660802    2.37257463082219   13.27122681511376
C         6.16812211169190    3.76914964559178   12.33144534260010
H         5.58187010584242    3.96446434871568   13.22096253392615
C         4.79482705144594    6.21800674569047    1.82245802682107
H         5.08893253757450    5.32841873529983    2.36449377714341
C         3.47841929165371    6.53251561216791    1.40581496939230
H         2.61592503484802    5.88558178845651    1.50834010762801
C         3.55352493924729    7.68344714594233    0.56127936604879
H         2.74521524060117    8.06917605885162   -0.04582017522751
C         4.90326722199954    8.08801226055995    0.49291404743373
H         5.30564133537263    8.84057208371309   -0.17271870241762
C         5.67687524382948    7.19503845152057    1.29640096125283
H         6.75784383291468    7.13115581138527    1.29943465637543

