61
CSD_code = YOZYUI | q = 0 | S = 0 | Stoichiometry = C18H38FeNP3 | MND = 6
C         2.02352365749172    6.72173348218355    3.12900927208032
C         0.73722899528048    7.03227329137149    2.68465316774689
H         0.22530064194066    7.89685080768472    3.07841222494913
C         0.07329075732785    6.26355571335136    1.74704616765787
H        -0.92273698726259    6.54591075618707    1.42995900127116
C         0.66470886275360    5.12745939855384    1.20465668692631
H         0.13448550724472    4.53211557920409    0.47428478504581
C         1.93048093434201    4.77603843935188    1.61173356010656
H         2.42007829101655    3.89811623094619    1.20847833724204
C         2.59405130483362    5.56567625193696    2.55521358284230
C         3.91359976798029    5.29863726739654    3.00659809791876
H         4.47872468933566    4.44752311577905    2.62301545144670
C         5.75838522798004    5.81606272249086    4.30680049510697
H         5.73291027853674    5.33330781034031    5.28507552021535
H         6.32352938756237    6.73935671282161    4.39658538743931
H         6.27624557142123    5.14639366124030    3.61000883845587
C         1.90424235334399    9.12344606371680    4.65292687680039
H         2.34007433263402   10.03133645165190    5.06536639402849
H         1.07880452579327    8.85988416363839    5.31977748868513
H         1.43574512362193    9.42780675414425    3.71502051780699
C         3.93066483361527   10.61274875545157    2.74415358068869
H         4.42851024292405   10.91425557221232    3.66147128730307
H         2.92413747033065   11.02425819487647    2.75102362873563
H         4.47643441247837   11.00191342274659    1.88477109886021
C         2.83274271409368    8.70103304779711    1.09415609126714
H         1.80112832371944    8.97556755104988    1.30028215395460
H         2.84591170503776    7.68642833239084    0.70097039018286
H         3.25628699450563    9.38839350581875    0.36045891203223
C         5.45361545979697    8.40321401350466    1.89523123789346
H         5.47915402379808    7.34734278882067    1.63129843709411
H         6.24367977593040    8.60374003577117    2.61477282199574
H         5.61743599904752    9.00250883962419    0.99981171193101
C         4.03011919650690    9.83037076789750    6.95257441392091
H         3.05332811446608    9.57673427653899    7.35269664816147
H         3.93636510823161   10.74480995970655    6.36996201627894
H         4.73396297214320   10.00225720684091    7.76684374100435
C         6.23282727006143    9.33126863135656    5.43218642721618
H         6.04235002024816   10.19577495481437    4.80076555397702
H         6.90938344046515    8.66362753848495    4.90255742644528
H         6.71635995685528    9.66177464353443    6.35193150643369
C         5.36094255495398    7.36271042645729    7.14518794050635
H         6.35646289298058    7.04666853226490    6.84126780269530
H         4.73997586918218    6.47938746725605    7.26596150784699
H         5.43682000586599    7.87882785975537    8.10153532541480
C         2.59677648544677    4.72262324575772    6.03344060836171
H         3.61662570231678    4.69445254242248    6.41135296194690
H         2.56915151521138    4.20708628926980    5.07446972966649
H         1.93509150478148    4.21663378930652    6.73622986635667
C         0.27646180950183    6.07875985986113    5.47210804155714
H         0.17475518353684    5.41386769779302    4.61782612067802
H        -0.27395438303471    6.99350763544090    5.27001382774037
H        -0.13383445380262    5.59874476145365    6.36153132776549
C         1.84816082154924    7.00680005856978    7.51260883570292
H         1.21515299346377    7.89294064831430    7.51667918670467
H         2.80540888614534    7.26233932467660    7.95677652921327
H         1.36998260705386    6.22471444990617    8.10280104281314
Fe        3.25096407132166    7.61107451116162    4.37681502367673
N         4.42136115336970    6.11058898764720    3.87168065192576
P         4.63505048305456    8.47981220635357    5.84551910500933
P         3.80976883663260    8.77466838115902    2.64868658415669
P         2.05270420304758    6.46268461193761    5.75596704111334

