58
CSD_code = YOZZIX | q = 0 | S = 0 | Stoichiometry = C17H35FeINP3 | MND = 6
C         6.74490671590738    7.68062978686825   12.25921904024740
C         6.86898073286276    8.62053675219093   13.27775144294976
H         7.61104049718029    9.39897005712852   13.19618432754341
C         6.07195293566441    8.60631309463001   14.40596511824631
H         6.21015637250893    9.36128330162297   15.16943673049999
C         5.09242078849536    7.63393550228927   14.57363212991485
H         4.47372969120815    7.62937587642387   15.45941167468347
C         4.92479104808114    6.68399342599108   13.59334572036637
H         4.16980052699281    5.91392030426257   13.68871509862771
C         5.73845966462592    6.71253756349586   12.45823478428728
C         5.61699184263494    5.77133515914087   11.40085894507955
H         4.86634614020633    4.97951694565951   11.44409108227264
C         6.26823331200101    4.92936308491795    9.33322173277863
H         6.06126893012272    5.43572551275711    8.39239701003317
H         5.46062331367293    4.21944445756114    9.54030361021077
H         7.19559037835400    4.37765597561176    9.19084939352218
C         9.09666457483750    6.14708346683783   13.48233750294245
H         9.28564178558200    7.16058987484517   13.82134050862158
H         9.86751460350174    5.47717137232055   13.86477884483094
H         8.12418431516060    5.83973971573050   13.86654751085734
C         8.69664054936424    4.25477608518205   11.53239525722246
H         8.81546008744998    3.92629614476401   10.50082902837286
H         7.69023480306469    4.02332897239033   11.87744321010447
H         9.42171506753617    3.72757127154137   12.15434328899142
C        10.80586850918771    5.95707853669118   11.19072808951172
H        10.87658114992539    5.41674250285484   10.24632950990615
H        11.36293640421073    5.42113162279138   11.96012959271778
H        11.24095942881619    6.94251695971425   11.04219529341231
C         4.76022346879344    7.87130773927569    8.81021896985223
H         4.22969600875716    7.21510609400197    9.49839444370266
H         5.12125394338198    7.29498609902781    7.95962747667463
H         4.07832937900063    8.64224781493984    8.44782495653168
C         6.63255500015763    9.78521702584409    8.24621798604707
H         7.59305151106739   10.26829782507443    8.41104734158857
H         5.86200353565394   10.54040920469182    8.08635791445325
H         6.72450189190381    9.16374848463685    7.35507255915871
C         5.17150523981002    9.80062778686568   10.71619684120712
H         5.80063111655740   10.40482695211059   11.36175229142377
H         4.54403014417748    9.17371583584337   11.34965474107013
H         4.54032024119719   10.44477820725038   10.10301540547074
C        10.20394885394600    9.27910360400311   12.42424677911654
H        10.83958308251600    8.39833578335767   12.46819006821278
H         9.64333037931261    9.34631406751821   13.35332141251757
H        10.83295990814065   10.16565397696459   12.33170194712116
C         8.43553154828881   10.93097086019913   11.11767447092700
H         7.78313340554659   11.17929485830253   10.28465416166293
H         9.28366942234728   11.61694078539645   11.12034138121477
H         7.87972791618553   11.06321476566759   12.04286162407905
C        10.35215969588029    9.56940029325227    9.69403398085073
H         9.87812318816587    9.79436154459827    8.74025425017761
H        10.99612070336165    8.70494788240980    9.54466723446260
H        10.95408646744306   10.42171015690131   10.01149212984728
Fe        7.71232709508379    7.45982653683231   10.60323685155051
I         8.77390030661716    6.90245156032435    8.35465125946196
N         6.40923170054884    5.88496398732696   10.39790805145499
P         9.07202960843009    9.20146086450596   10.96421860001705
P         6.17515644900452    8.68771259558675    9.65216698426923
P         9.02598461956704    6.05900348107536   11.64838240712040

