65
CSD_code = YOZZET | q = 0 | S = 0 | Stoichiometry = C22H37FeINP3 | MND = 6
I        15.43860124672722   -4.44237592942723   -6.56035047312994
Fe       13.00629049767547   -4.95006772723489   -5.95550422137815
P        12.36335262929045   -3.12181401528681   -6.95494987234272
P        12.60725131551811   -6.25772985706672   -7.69580125800835
P        13.67136433862988   -6.59246454971944   -4.67747735368976
N        13.25159874532699   -3.88903695489803   -4.39811672311128
H        14.14706388197029   -3.48446210000054   -4.12351240913124
C        11.23012820497989   -5.06094558068219   -5.20350674664303
C        10.08867555553956   -5.68206320054750   -5.69475142606287
H        10.14351842678676   -6.24210894777330   -6.61504487024892
C         8.86653001940438   -5.60240403331090   -5.05506250703990
H         8.00565119459664   -6.10630852271992   -5.47540601253922
C         8.72669548565507   -4.86179351086704   -3.88807930088677
H         7.76235831962238   -4.77879133036322   -3.40745015847274
C         9.82804402079358   -4.22821123311476   -3.35769607192627
H         9.73494767271649   -3.62258575697609   -2.46626052451730
C        11.06530724618783   -4.35032135572414   -3.99142567339749
C        12.28790283742437   -3.74204453378508   -3.54451773327781
C        12.48035072730629   -3.07090484491959   -2.25587159955890
C        11.97351006461915   -3.63049154499222   -1.08295119068655
H        11.43275237013286   -4.56499952709267   -1.12822136671044
C        12.19013114154532   -3.01516132301132    0.13513763812235
H        11.79656354482961   -3.46072929703932    1.03720298803136
C        12.91213974920248   -1.83466692307255    0.20243858947831
H        13.07489602135495   -1.35312747801443    1.15505835399466
C        13.43153068625542   -1.27885343320006   -0.95508615070083
H        14.00187620086462   -0.36286420813405   -0.90754629627196
C        13.22547474764612   -1.89483791114590   -2.17451913841109
H        13.62957015011192   -1.45101401799631   -3.07368180538390
C        12.72523257326279   -1.55926596005413   -6.06479468472780
H        12.46329201014368   -0.71519277336426   -6.70454881294804
H        13.78941466952565   -1.51492524963925   -5.83169468666272
H        12.14301212618673   -1.51039899855519   -5.14511684478945
C        13.10768772870862   -2.64126198634406   -8.56875846549648
H        13.26074364205627   -3.50675505054338   -9.21027979271335
H        14.08370608930840   -2.19876695187624   -8.37003892558208
H        12.47217895010352   -1.91469580192320   -9.07622800851208
C        10.57838412606391   -2.81811521176987   -7.25893910017426
H        10.06682376525283   -2.81301530780795   -6.29726663539231
H        10.14621190426244   -3.60513976521806   -7.87009023223919
H        10.44372042576589   -1.85331400058941   -7.74945879286675
C        12.04055540588993   -7.99924795904010   -7.47197926980007
H        11.93168570329885   -8.46710011441635   -8.45145270043613
H        11.08373087265687   -8.03027543142842   -6.95689796794829
H        12.76281668191799   -8.56409906628847   -6.88783702173981
C        11.38992671846519   -5.79647028835694   -9.00379287601522
H        11.60799344970241   -4.80511527259985   -9.39399339460821
H        10.37684713947901   -5.79770031405682   -8.60864640177927
H        11.45177232552387   -6.52038567848741   -9.81770177962703
C        14.01486004874887   -6.60842222067394   -8.82537256539517
H        13.70513816213128   -7.30635257946386   -9.60431392979562
H        14.85104409504983   -7.02825985711541   -8.26934584078438
H        14.35600782258651   -5.68040652540793   -9.28254339650681
C        14.90827295380588   -7.82041554692549   -5.26575126958015
H        14.94908230427823   -8.66346935006163   -4.57491172367626
H        15.87936502033718   -7.32549698629214   -5.29431531292251
H        14.68258960543835   -8.18140945958677   -6.26612350002792
C        12.38907310226988   -7.67055353825748   -3.92882545104709
H        12.85103530578262   -8.43689293353403   -3.30555198282214
H        11.78121478283969   -8.13575429435404   -4.70001644315659
H        11.73944459718638   -7.04395644391928   -3.31861244245621
C        14.56056264374704   -6.13910146374384   -3.13460841862605
H        13.90669869435094   -5.59879453289465   -2.45129968759923
H        15.42123420530697   -5.51714938054175   -3.38227435868866
H        14.91016330584909   -7.05174405675307   -2.64996396895521

