47
CSD_code = YUBFIM | q = 0 | S = 0 | Stoichiometry = C22H18N6Ni | MND = 4
C         9.10992539916180    0.87158417115800   12.05432412724021
H         8.19349172914230    0.35333767687233   11.79712995871071
C        10.08860616645716    0.22652577613933   12.77241278260169
H         9.94801197278479   -0.79773571414312   13.07801380525811
C        11.25948014532323    0.92110862690553   13.10817095993592
H        12.03878728649807    0.42999960320742   13.67124418547034
C        11.39240050737944    2.22257992326811   12.71188896503918
H        12.26734423772818    2.81114558717231   12.93331254337905
C        10.35211607884882    2.83229342102304   11.98034823769407
C         9.55282315800298    5.82892627941634   10.39112937786572
C        10.34448159036998    6.77027281513050   11.05585053029394
H        10.89912313766100    6.45708337606437   11.92648885011958
C        10.38515302877786    8.07383210438005   10.60774880103039
H        10.98753651798964    8.80086641596882   11.13253255698121
C         9.65201433446221    8.45864454180031    9.49538907524568
H         9.68226603998039    9.48280272723066    9.15500426999596
C         8.88725019830018    7.52339881338097    8.81488199799773
H         8.32913087005880    7.81668918333461    7.93812134552746
C         8.84295586798397    6.21608070959972    9.25010423856880
H         8.26793439650265    5.46910123226511    8.71437444012251
C         6.89813373943794    0.94844943325157    9.22306257029010
H         7.80952629396221    0.41034732148055    9.45628244954661
C         5.91490995847222    0.34705329717814    8.47398840645420
H         6.04672636047262   -0.66288929226504    8.12057145651085
C         4.75105631315253    1.06746098385626    8.16961142156157
H         3.96863871484363    0.61089764890108    7.58231499920649
C         4.62906404445495    2.34971029225630    8.62724561532380
H         3.76011700490116    2.95631641296912    8.43247780071265
C         5.67307223605611    2.91420551540036    9.38915960771282
C         6.49365770189947    5.82309514345313   11.12382315317962
C         5.71095863345683    6.80216790708480   10.50448919942950
H         5.15585815548233    6.53633824826142    9.61852536955596
C         5.67960166214527    8.08249449238458   11.01575647868439
H         5.08440894459605    8.83923654912982   10.52589614696308
C         6.41301865269680    8.40636270327296   12.14720449874420
H         6.39007692241398    9.41281976587825   12.53729643780118
C         7.16882971247766    7.43283758443836   12.78251817175788
H         7.72705259024316    7.67833370441776   13.67378803221392
C         7.20410920841116    6.14815569874655   12.28367261611432
H         7.77230219657335    5.37127599163042   12.78298876257394
N         9.20584221204698    2.14370108659420   11.65468797186682
N        10.44896039655448    4.09979929266043   11.58422141433011
N         9.45948189761121    4.51100876990638   10.82433482821731
N         6.81287494408810    2.20089898347132    9.68278907664588
N         5.58588237281933    4.16168290504657    9.84637284328825
N         6.57733212196792    4.52722984084898   10.62677202965683
Ni        8.01377434535445    3.35097244957634   10.69757759257955

