49
CSD_code = YUBFEI | q = 0 | S = 0 | Stoichiometry = C22H18Cl2N6Ni | MND = 6
Ni        7.90446555171082    2.90695628458038   11.96504290812823
Cl        6.22220322010278    3.98959460763723   11.22711305888706
Cl        9.01060934441311    4.67627819077372   12.41581908613008
N         7.19503528832278    2.85632609560001   14.02657921524334
N         8.64452442990528    2.74009383062283    9.91945977350696
N         9.25717180571434    1.79399837265502   12.83861335121692
N         8.99610278976246    1.39747920348581   14.02744820214020
N         7.11258640058209    1.20373871778919   11.36842199374527
N         7.54672001561329    0.72819120380806   10.26214224761157
C         6.34966374183866    3.63658880227873   14.68077070165910
H         5.66629040428996    4.21038974607478   14.06787107961022
C         8.09973138859676    2.13933280240778   14.72304293346169
C        12.05390469766954   -0.40726432729642   10.68277176928524
H        12.76846283136198   -0.97370591620636   10.10455231358302
C         6.31409998209599    3.69855799861838   16.06193988533487
H         5.58222311601303    4.31594641603094   16.55680602367950
C         5.48491355462857    0.71073290787815   13.05428012590398
H         5.12198597098792    1.72200937221743   12.94847380886633
C         6.96802431173826   -1.04263618676308   12.29419327671825
H         7.75856569811997   -1.36119649144608   11.63127566643729
C        10.19315928404549    1.04001359086704   12.13997535849473
C         6.53632613875806    0.28543128557199   12.23869604831420
C         8.10106548868944    1.61913941964917    9.40394866899117
C         9.14117374830726    3.65144621442535    9.09797594559002
H         9.53825521971138    4.54289121497593    9.56652550068429
C         5.37063576388771   -1.47759074261256   14.03118154189000
H         4.92683874583316   -2.16056947833886   14.73996278449500
C        11.02656283411190    1.69142864146046   11.22743497300538
H        10.95034915437932    2.76380124822494   11.12819989439459
C         8.13267078781628    2.15064124410643   16.12397799952115
H         8.89008284523133    1.57752892620504   16.63251047998837
C        11.95037671466639    0.96491798778973   10.50513169757161
H        12.59708489713987    1.46883894815140    9.80254297641468
C        11.25183001383745   -1.05044824957188   11.61351132644972
H        11.34765610372243   -2.11565066716290   11.76413783634304
C         6.39056386667152   -1.91159654097006   13.19771657856530
H         6.73478336839946   -2.93383321606963   13.25331216136334
C         7.22049927304431    2.93386626661126   16.79312478296401
H         7.21426041276003    2.96365643066440   17.87245264181530
C         8.09715284482057    1.36464106308262    8.02584613835730
H         7.62845202753191    0.46495138572378    7.66301622343738
C         9.18067052190510    3.47257571828568    7.72730482483597
H         9.63057938892143    4.22218899960351    7.09694950179803
C         4.90929241428129   -0.17192271414440   13.94454861040252
H         4.09443102048468    0.15577307329368   14.57259934578995
C        10.33106880691536   -0.33459280530118   12.35151362968623
H         9.70180066022316   -0.81396999471663   13.08639436997957
C         8.65249701302055    2.30242917511000    7.18612484599205
H         8.66909609740542    2.13820194435675    6.11906589170456

