76
CSD_code = YUBGEH | q = 0 | S = 0 | Stoichiometry = C30H38Br2N2P3Tc | MND = 6
Tc        4.04278838930937    7.65968345599397   27.28776994341108
Br        5.53638465203634    8.50018589629528   25.46060214128129
Br        6.13687662889116    6.87006691545081   28.55668396833318
P         4.44014856888540    9.70824448913500   28.52233464886091
P         4.07978505978841    5.44330771761783   26.32210940397504
P         2.29401425029959    8.49737975911689   25.84558154300888
N         2.91119053614015    7.14074098050722   28.52303900695917
N         2.01588584526038    6.86138215514544   29.27854166669084
C         4.34606657033659    4.11185611826678   27.55846647517599
C         5.42898574782645    5.08042858310426   25.15130792376506
C         2.49538684664265   10.17448129041490   25.12932156068852
C         0.68436689582012    8.71037998520243   26.68861386332681
C         4.65950968570901    9.44397929386333   30.32563091088075
C         5.98156599649649   10.60686598146208   28.14542634942933
C         2.02855378008148    6.24325107343989   30.50301390514761
C         0.80876144122161    6.04902518136215   31.15551311580282
C         0.78315454525480    5.43119022742828   32.38872773572388
C         1.96057300719363    5.00269161392977   32.98359268734487
C         3.17186975382073    5.19533568244786   32.33658688330151
C         3.21774324208977    5.81063496957288   31.10329413541263
C         2.58476084502359    4.74493033507372   25.54707002104558
C         1.42062387180181    4.78430292576464   26.30939641614233
C         0.25940205252253    4.19629219144286   25.84855274443979
C         0.24759896391737    3.57073742555628   24.61211406087374
C         1.39486035628250    3.55101497599046   23.83883195947416
C         2.56179752462627    4.13447509526401   24.30148442985823
C         1.84879328818998    7.59884058477823   24.31721168196920
C         0.59708067408127    7.02820350419712   24.11622821169013
C         0.30293625389922    6.39667219680159   22.92150304522406
C         1.25381380098675    6.31474899261288   21.91925904126257
C         2.50870774119306    6.86395061436023   22.11891559767711
C         2.80418842307623    7.50335289413840   23.30804777674335
C         3.17677095798062   11.02284951054960   28.57664212243264
C         1.98954947511425   10.75146880058608   29.25311841897016
C         0.98132282300519   11.69539459556473   29.30836813717702
C         1.14184586209965   12.91821466755739   28.67568318427082
C         2.31217452604635   13.18943792676066   27.98782794786523
C         3.32511305485268   12.24676751877657   27.93429492123111
H         5.33827997080228    4.21725053057167   27.99514334135557
H         4.25575465795103    3.14073447679817   27.07088154021928
H         3.60119454440472    4.18985424252413   28.35014095327294
H         5.30015714277890    5.65419667621093   24.23400372194335
H         5.46986276404951    4.01313323153371   24.93467483900010
H         6.36476887874874    5.39013301221317   25.62174894947283
H         2.58181679340466   10.90089157100462   25.93751955825763
H         1.62630673050462   10.40996429942767   24.51430568666393
H         3.39370385801463   10.21417521340675   24.51565748884758
H         0.35922496022554    7.76269488929867   27.11379570103658
H        -0.06742983774761    9.09751042921073   26.00172226501525
H         0.83196154065882    9.42206280579266   27.50086545093151
H         5.58937500633221    8.90014969643865   30.48768840446136
H         3.83806533015980    8.85382327014655   30.72932695773408
H         4.70067351537195   10.40774091201158   30.83347637376103
H         6.80932311489443    9.90858190983644   28.28462397573466
H         6.09736646849021   11.45387277929430   28.82190880938704
H         5.99271355804026   10.94035667450671   27.10859393053213
H        -0.10112247324428    6.38722091917560   30.68235881912317
H        -0.16112782065138    5.28134606006935   32.89189077641841
H         1.93355393838662    4.51993603970825   33.94880898543728
H         4.09127738889818    4.86366964246808   32.79578780643954
H         4.15924025016152    5.96313459778548   30.59555851109030
H         1.43736306420993    5.27867622363318   27.27255174293164
H        -0.63659676309890    4.22106432978157   26.45219180961060
H        -0.65670857775986    3.10381623146128   24.25051520776087
H         1.38497779227090    3.07355797687891   22.86982179442388
H         3.44782109509620    4.11243739966613   23.68546282996285
H        -0.15547322760733    7.06792832125992   24.88817178461683
H        -0.67691796382937    5.96607293827788   22.77444244331086
H         1.01772678633561    5.82234097821091   20.98753857429876
H         3.25915440915560    6.80081194075072   21.34449078106513
H         3.78448177160942    7.93543465365233   23.44795109247681
H         1.86317592652016    9.79330177309827   29.74033974736135
H         0.06818578879117   11.47825830006246   29.84358011959637
H         0.35540901500941   13.65686936430223   28.71826689774173
H         2.43917471032370   14.13973215833313   27.48992692822607
H         4.23233395456962   12.46969740570471   27.39205781365174

