70
CSD_code = YUBGAD | q = 0 | S = 0 | Stoichiometry = C32H31Br3NP2Tc | MND = 6
Tc        2.40835152677671    2.06307827157994    3.38829438573959
Br        2.09889885400118    1.21949258220788    0.97977587350678
Br        2.72875719201156    2.81629804103095    5.82438015856916
Br        2.26943847752954    4.36366851644150    2.64706509740816
P        -0.02958009015156    2.04623361300326    3.62413724223700
P         4.84240487904370    2.18449486271688    3.12503242290329
N         2.50964767750319    0.41761599677593    3.91601997028491
C        -0.99718467913530    2.52783482826403    2.14990813851327
C         5.68705706093677    3.55946641611079    3.98401187531208
C        -0.90833740903565    3.00425190680472    4.89919110185613
C        -0.42779229970941    4.23786532161050    5.32086531247859
C        -1.14146649152784    4.98109189184052    6.24437666447361
C        -2.33940547156987    4.50223418665612    6.74440026210517
C        -2.83003025994825    3.27911852260231    6.31453639188947
C        -2.12137370613740    2.53177857152424    5.39405689983677
C        -0.49652388455813    0.33120092911264    3.98436325060923
C        -0.85222406214043   -0.56152089576469    2.98066231360678
C        -1.06307453234671   -1.89424664484128    3.28984772195249
C        -0.91067312835009   -2.34231068080876    4.59090569597936
C        -0.53948566450881   -1.45734868423318    5.59108940633065
C        -0.32354814670096   -0.12701621756889    5.28952590024148
C         2.58639117007473   -0.83980030132723    4.31720642977572
C         2.36992579232969   -1.89017737662479    3.40396203678215
C         2.45068876517393   -3.19427048539376    3.83468635556522
C         2.74772086263209   -3.48184947378732    5.15949442002360
C         2.96410524956731   -2.45202696955447    6.06438571103281
C         2.88466736580195   -1.13919845696054    5.66087326023018
C         5.65764840545473    2.28595428160077    1.50007083598003
C         5.06597692619762    2.98694835995222    0.45619118849517
C         5.72141064644695    3.10995156008825   -0.75599421338987
C         6.97138798582421    2.54247043720582   -0.92987367472591
C         7.57220827688520    1.85683871625603    0.11418757455972
C         6.92221150292146    1.72939287325245    1.32651649845378
C         5.51435559983939    0.66313570368910    3.84813711979450
C         5.44409390559989   -0.50254771049595    3.08662838275838
C         5.82444194254362   -1.71200485173571    3.63421867425568
C         6.25832172076978   -1.77025702834454    4.94942406452760
C         6.30876624626088   -0.61773050949870    5.71482414487003
C         5.93358041501216    0.59895129759749    5.17140802221978
H        -0.63379760443075    2.01180494038824    1.26175249942359
H        -0.87587416214392    3.60307529118180    2.00396174318096
H        -2.05028925788663    2.30228564191863    2.31990711099926
H         5.34348442398327    3.64261645204810    5.01471458544914
H         5.44452362097448    4.48507551823865    3.45815782854701
H         6.76473336294522    3.39679163323423    3.95178726330236
H         0.50454679447715    4.62816688969319    4.94193487850737
H        -0.75554246480559    5.93358891422417    6.57390117932329
H        -2.89366891320819    5.08045586409057    7.46860119385138
H        -3.76800017289602    2.90530278703549    6.69857376823509
H        -2.50396975191085    1.57603003756880    5.06143370019948
H        -0.95211747257543   -0.22336567671209    1.95972301505550
H        -1.34054279416857   -2.58578475735955    2.50813722401238
H        -1.07321902380530   -3.38353883957919    4.82619773808128
H        -0.40855224833817   -1.80715510061583    6.60429152649614
H        -0.01859461983826    0.56771387336295    6.06206525595266
H         2.14279879283588   -1.64728908841504    2.37703815240782
H         2.28194332585785   -3.99688442329213    3.13218318138917
H         2.81052716100360   -4.50872186273099    5.48685247392663
H         3.19553421303735   -2.67778547027829    7.09467111417778
H         3.04749259994465   -0.32512849030642    6.35075735805182
H         4.09151199678117    3.43653381061549    0.57369729599886
H         5.24981031301225    3.64722615255940   -1.56450303280301
H         7.48044853386408    2.63409234708308   -1.87775559728616
H         8.55087160492728    1.41840231099348   -0.01637352446804
H         7.39175003542276    1.19215633638424    2.13963247812294
H         5.08959419439967   -0.45062080014917    2.06479345107198
H         5.77267149204442   -2.61172957449237    3.03928973830529
H         6.54933144645670   -2.71722204211583    5.37897192471782
H         6.63482912875004   -0.66461051025496    6.74329148291211
H         5.95550682394598    1.49025643468444    5.78102007579844

