67
CSD_code = YUBLUC | q = 0 | S = 0 | Stoichiometry = C30H25BN6O4Zn | MND = 4
Zn        3.66672938786518    2.59385710690747    2.23068468599062
O         4.41234508962715    4.18736415748856    3.11092462428967
O         4.33473714224610    2.36549285864569    4.30248456240207
O         4.38429552051515    4.81976670094845    7.54500424696241
O         4.15170837528364    2.73352856763680    6.83240719783509
N         2.70626701815166    1.78095854029944   -0.25525631001104
N         3.11604336374656    2.92116531218831    0.32008843660631
N         3.99147937280260    0.10811000964134    1.02963794950829
N         4.72133947105904    1.02327074453475    1.67300135631879
N         1.69824552465141    0.70004128431351    1.75029348550451
N         1.95348311362150    1.70301750159426    2.59838605757342
B         2.58452361649175    0.46427885976318    0.52073497173680
C         2.50519979161564    1.98507926955171   -1.56260277183950
C         2.79914552241233    3.29835880055760   -1.85259059913993
C         3.17957226538368    3.86006232487952   -0.62564424983234
C         4.66796782840479   -1.04442362518886    0.97279660930320
C         5.87823134879565   -0.87428099200773    1.61175188953013
C         5.87193848333181    0.45930702723521    2.04036391881315
C         0.66772089850949   -0.01986618047242    2.20928166300186
C         0.24373113388092    0.52911881511656    3.40024752808374
C         1.08896681969058    1.62665087661650    3.61089545669632
C         4.32319350073654    5.94636140602210   -1.28902874292112
C         4.69368108668290    7.25398311832574   -1.03814199192788
C         4.31910877115773    7.86845350013268    0.14570245054993
C         3.56675539344216    7.17132308031602    1.07650423842412
C         3.19183721763781    5.86453111991778    0.82929453150796
C         3.57404576062992    5.23639672715458   -0.35266970853033
C         7.07503779406454    2.56965286992123    2.48042169754334
C         7.99235450266309    3.30789506610296    3.20480305747618
C         8.72682570134298    2.70855757514759    4.21592461177688
C         8.54762412550959    1.36330732957609    4.49517339511711
C         7.63002544917306    0.62071696061073    3.77566879494840
C         6.87844393947787    1.22029687209600    2.76836103699241
C         0.85546227369003    2.18334480245531    6.01252785923809
C         0.92843320789660    3.09355739151594    7.05045355259496
C         1.26051701607241    4.41421474122332    6.79859270947480
C         1.51194148302165    4.82548954407771    5.49966104370841
C         1.43755543405543    3.92058770155570    4.45760715064749
C         1.11834227110757    2.58720200287786    4.70592298350279
C         4.61676384017056    3.57970745070482    4.18305340336697
C         5.21734757396083    4.31959305102056    5.35729426591611
C         4.52795382918828    3.99226233966675    6.68886242345595
H         4.21309728022936    2.26400613079627    5.95467671049448
H         2.14745331706317   -0.39621710371090   -0.16147571342624
H         2.16931530453272    1.19360858538170   -2.20166186854950
H         2.72937011097033    3.79192618465259   -2.79957834438801
H         4.25603533020344   -1.90726071334393    0.48919320221435
H         6.66061813854229   -1.59431730102646    1.73448099347429
H         0.30025583358777   -0.86950015844717    1.66970433445243
H        -0.56616072868054    0.20390973557228    4.01966746593224
H         4.62719414840222    5.46303504098479   -2.20606798993171
H         5.27897639949634    7.79575964520505   -1.76688474507575
H         4.61147724571945    8.88989127263267    0.34004240262297
H         3.26826911855821    7.64929071072354    1.99749822197061
H         2.58843759298344    5.32730106630380    1.54383022742985
H         6.51535600338243    3.03539061913155    1.68064973170339
H         8.13381298743165    4.35460052165055    2.97902752911164
H         9.44040831176834    3.28814555245375    4.78318641302658
H         9.12035953501393    0.89425552066988    5.28161653896409
H         7.47463968795374   -0.42267820962203    4.00612919929296
H         0.61866567366151    1.14873958677124    6.21165843001513
H         0.73833069555161    2.76968151410175    8.06232330459762
H         1.33634397936444    5.11887302665441    7.61175551929166
H         1.76889423207195    5.85527689980066    5.29987375060408
H         1.60841317522099    4.24525185253269    3.44023520888599
H         5.20398455361612    5.39421459611164    5.18162539244474
H         6.25693081360450    3.99092281334144    5.45481461265475

