74
CSD_code = YUBMAJ | q = 0 | S = 0 | Stoichiometry = C35H29BN6O2Zn | MND = 5
Zn        1.65840701473008    0.00686560201144    4.93376541953716
O         3.71693179882967   -0.36750359293837    4.79877970155578
O         2.31391542898429   -0.51335319042835    3.14651233301739
N         1.15726167582833    2.14727384317423    6.66095445762902
N         1.84234164969332    1.89380133818482    5.54237937652454
N        -0.82988804061675    0.90103760818975    5.89071552950448
N        -0.35227587723272    0.24850569077384    4.82398807180521
N         0.70727354025143   -0.11286892660364    7.56536637745258
N         1.39410624553607   -0.86667870892355    6.70252663072884
C         3.48708933751510   -0.56821276557542    3.59538034582178
C         4.63103175859227   -0.88197470213228    2.64442064369877
C         4.50949646040226   -2.28654111332697    2.12523960007005
C         3.43472141220718   -2.63960209231950    1.31710641214070
C         3.31982460070851   -3.92911653942809    0.83068397081187
C         4.27874956354598   -4.88040162326947    1.14004865402889
C         5.34817896766909   -4.53592449353700    1.94801130574424
C         5.45983997149626   -3.24736561304307    2.44196752520674
C         1.61287346965768    3.27268131897467    7.22248396044173
C         2.63792606926799    3.76592293091481    6.44354395665264
C         2.74694689947837    2.85907531619837    5.38082289464057
C        -2.09546964537882    1.27211120782307    5.65996875713684
C        -2.45256333985226    0.85235355353996    4.39747416820775
C        -1.31432386629623    0.19981056431332    3.90353421678093
C         0.77222814140791   -0.65721367016204    8.78649868046054
C         1.53377541753681   -1.80317263186327    8.71490432728746
C         1.90835645527590   -1.90118443610167    7.36691748329885
C         3.62887790800167    2.88992242121069    4.22120973117498
C         3.14641292878279    2.51260950956679    2.96998526877077
C         3.98173277427539    2.53551894793154    1.86877714414977
C         5.30222380944660    2.93288934770641    2.00257207971220
C         5.78467712661568    3.31615216574041    3.24311538418381
C         4.95320554579857    3.30001049951377    4.34715568980245
C        -1.13118745244859   -0.47793595824346    2.62552000620852
C        -0.44966667615771   -1.69008198277119    2.56886526855396
C        -0.27251003038724   -2.33521221963380    1.36033520728777
C        -0.77441197283649   -1.77917155021030    0.19523794134950
C        -1.46484480951201   -0.57927161488474    0.24521508526775
C        -1.64700503925032    0.06807518572054    1.45311660939588
C         2.69533906257296   -2.92805377165634    6.69906188339364
C         2.42849639713589   -3.26379203476880    5.37370152691578
C         3.17184624579712   -4.23599367170358    4.73398849497930
C         4.19337624248343   -4.88418909179716    5.40857424827052
C         4.46329852071489   -4.56022896196313    6.72771992111514
C         3.71777343226762   -3.59127446778157    7.37298952533978
B         0.04124346486808    1.19393818057982    7.11743332577784
H         5.56979309750102   -0.73976840336384    3.17874124902675
H         4.56857055967646   -0.17280931436122    1.81648904842001
H         2.68277507962932   -1.89885692659837    1.08995583824583
H         2.48307917580423   -4.19433712626453    0.19997135860131
H         4.19118045559801   -5.88578383824446    0.75398919866522
H         6.09907529588246   -5.27278937592039    2.19432833280567
H         6.29346895213484   -2.98528187752312    3.07732579628109
H         1.18815497535804    3.65307060115101    8.12976700485452
H         3.20994921485384    4.65713231843966    6.60007829154062
H        -2.66109345719226    1.80555652775163    6.39720870234062
H        -3.39669009154088    0.97364800646245    3.90781364250875
H         0.27945876618479   -0.20520814296806    9.62376395733876
H         1.76878932265946   -2.48217746717661    9.50825282675651
H         2.11394528964885    2.21201310593079    2.86274726664384
H         3.59876339150396    2.24523390361651    0.90091629994337
H         5.95420382032186    2.94620144115841    1.14120080131600
H         6.81397031978751    3.62662433370846    3.34954781926605
H         5.33130224648887    3.58630485842026    5.31742072842712
H        -0.07855259469494   -2.13056191642364    3.48124409013752
H         0.25733753475476   -3.27561600724759    1.32912518769398
H        -0.63185393194265   -2.28091111380848   -0.75096883012195
H        -1.86049003173602   -0.14553628654737   -0.66195010378250
H        -2.17538907765020    1.00979543733638    1.49069902224437
H         1.62336787093498   -2.76742354142109    4.85064135445287
H         2.95577607483094   -4.48924849559047    3.70712772795138
H         4.77642520077309   -5.64049763644986    4.90447978196621
H         5.26065841624277   -5.06344045549165    7.25548975060365
H         3.93850787764545   -3.33013757347688    8.39743061839619
H        -0.59481634085372    1.67056915793357    7.99329409550948

