109
CSD_code = YUBNUG | q = 0 | S = 0 | Stoichiometry = C37H61AgN6P2Se2 | MND = 3
Ag        0.60284624030161    3.31559538019386    5.92353648147170
Se       -1.91050160289765    3.27646502538556    6.82477642470372
Se        2.25049791182877    3.65761436746585    3.55533895385756
P        -1.93360983733744    3.65623731392156    4.70627468251025
P         0.17488025234740    3.81092496693184    3.26356338057184
N        -3.19894903961790    3.87273045369925    3.84024187841875
N        -0.25915137934856    4.11249497906275    1.69698673626607
H        -1.27351809734679    4.16412534771388    1.66638087726678
N        -0.70211133742994    4.83268361084627    4.25818685652571
N        -0.81127560917174    2.59605738819005    3.85815631117554
N         2.98927599301252    1.81787425357812    7.65151212950063
N         3.06221312172448    3.91192131498577    8.04948846848271
C        -4.60386361115516    3.88425476700607    4.15728466636704
C        -4.95930986955033    4.98494320398949    5.16158322483840
H        -6.02468200691924    4.96434061906775    5.38175609451966
H        -4.70441822577355    5.96533159975554    4.76596670891954
H        -4.41054563474471    4.82442260036601    6.08866954105381
C        -5.32285599187249    4.15445509469631    2.82876189259180
H        -5.08446666946960    3.37358004867776    2.10899191723186
H        -5.00258464538121    5.11006928889719    2.41781772416925
H        -6.39933329752797    4.17836717821843    2.97959826279245
C        -5.07752702105253    2.54436750963832    4.72895286595218
H        -4.91140501618573    1.74013024625505    4.01603430852199
H        -6.13923147183783    2.58883444304883    4.96286771640422
H        -4.52995665590849    2.32386566305653    5.64433114233982
C         0.41161389932273    4.30974798015148    0.40954114525552
C         1.34566470330167    5.52074597899048    0.45732152548590
H         0.78953876574856    6.43120375721168    0.66648741703556
H         1.84988227184020    5.63529521143229   -0.49915022784484
H         2.10358185693964    5.38264602066408    1.22544951625655
C         1.21891665591283    3.07088937907969    0.01620307765862
H         1.72404502477466    3.24511588164859   -0.93075351163053
H         0.57123981997611    2.20427986888917   -0.09140961597108
H         1.97460738150143    2.85850489660039    0.76949537771072
C        -0.68949808142144    4.55321033117959   -0.62459047932104
H        -1.27284260066530    5.43510153213004   -0.36413744163434
H        -1.35880384198405    3.69612374245551   -0.68242208675433
H        -0.24947179422370    4.71117894944264   -1.60606323069170
C        -0.54197414030805    6.22843915789697    4.59838240538789
C        -1.90697705831941    6.77810789329498    4.99987632087411
H        -2.59844583676494    6.70901994739291    4.16200972931290
H        -1.82453932193481    7.81729071047153    5.31136569951070
H        -2.30825834207827    6.19409041612873    5.82877235641183
C         0.43789191465079    6.38093714806757    5.76871131507730
H         0.53978221797248    7.42763158094992    6.04569667904025
H         1.42666246203177    6.00748218514534    5.48862761260509
H         0.07777480515735    5.82951325251222    6.64602665300449
C         0.00767524574287    6.97916132187457    3.38747396392221
H        -0.68926312853510    6.91559055183562    2.55254221028794
H         0.96091418167515    6.54006223942140    3.09106642928119
H         0.16933295972774    8.02709580808030    3.63121721791954
C        -0.78899736596014    1.16001954706880    3.69441839787349
C         0.15230063530525    0.52186113868839    4.72393818379723
H         1.17692275366139    0.87334486026453    4.57403950109307
H         0.14998597266045   -0.56080457882482    4.62135611250886
H        -0.16982140620668    0.76878265129819    5.74304186027291
C        -2.20636693020502    0.63737620483941    3.90579293090332
H        -2.56451303508382    0.93745196232443    4.89113786551475
H        -2.22770904943758   -0.44849382650556    3.84135893074571
H        -2.87419514418119    1.05416372839429    3.15397184371164
C        -0.29296691363531    0.82334060019846    2.28994679058704
H        -0.23553664464881   -0.25479218098286    2.15539594455905
H         0.70244883587021    1.24513947775690    2.14647455960756
H        -0.96681064243330    1.23604866412980    1.53995011518901
C         2.35700860237545    2.97949326938105    7.37017261693857
C         4.05216084014425    2.01900974623518    8.48692289445382
H         4.66894887707222    1.21550612631959    8.83396030222760
C         4.09851165519153    3.34785900371938    8.73939970197778
H         4.76337026136124    3.92531197296280    9.34850559844401
C         2.62578124263564    0.53017487988246    7.16967034873434
C         3.37898694390914   -0.04794511983045    6.14737121705535
C         3.06305207050319   -1.33762604259327    5.74583260622697
H         3.63574307356039   -1.79665126292959    4.95296509325980
C         2.02621708640496   -2.04641910346025    6.33644474125726
C         1.28176171958218   -1.43653650102551    7.33756557132893
H         0.46254954099459   -1.97518357630719    7.79088899930644
C         1.56090247630003   -0.14744805524893    7.76560911967721
C         4.47432697007267    0.72726476354986    5.48403466503948
H         4.07216614518667    1.65553234240507    5.07374743375603
H         4.91737588985384    0.15186347769492    4.67650813800006
H         5.25676824348401    0.99185983836445    6.19318681830464
C         1.71949432580099   -3.44958718276348    5.90992383546744
H         2.05059223690501   -3.62845347716804    4.88986831991862
H         0.65299868826821   -3.65120111879253    5.97778936108494
H         2.23512258425602   -4.15622983982058    6.56063393534997
C         0.73886552456979    0.52048278010142    8.82254200141761
H         0.23347904286450    1.39347678348878    8.39176278945343
H         1.36522540577755    0.87208525889235    9.64016324802422
H        -0.00768995604690   -0.16112282609093    9.21789601133571
C         2.79352435132570    5.30822217392105    8.07603160972109
C         1.77418994768891    5.79360307853568    8.89716911211273
C         1.59053134680481    7.16569522007526    8.97271885072042
H         0.80778047957585    7.55783995417299    9.60537631985673
C         2.38536538850315    8.04590797799533    8.24960757049028
C         3.37381165118421    7.53173592925918    7.42255833303497
H         3.98448134658015    8.20707470156233    6.84086232648359
C         3.59338885008737    6.16556208092776    7.32035884067958
C         0.89797568948118    4.84451775497317    9.65208325900617
H         0.33032258327042    4.23242595567633    8.94095286775483
H         0.20271866865378    5.38420086504445   10.28736678199332
H         1.49076207763077    4.17089674052382   10.26785428323448
C         2.17844870784420    9.52487614781124    8.37083390796092
H         2.66302660454062    9.89508206846548    9.27447870913277
H         1.11921744051916    9.76226569411531    8.44126792607683
H         2.60376507171630   10.05030289923225    7.51946410832286
C         4.63501462453464    5.61090525476949    6.39919125272280
H         5.39743498328063    5.06254339327765    6.94986849868175
H         5.11650748100389    6.40757746270264    5.83974027505550
H         4.17270563030321    4.91675785380307    5.69482745791493

