18
CSD_code = YUBTUK | q = 0 | S = 0 | Stoichiometry = C8H2CrN2O5 | MND = 6
Cr        2.11180332268258    1.18304896552814    7.99912164541242
C         2.70929065245377    2.09074482613838    9.51265614496513
C         3.52858727094259   -0.02505933242689    8.23966563766702
C         3.23261600584758    2.28769803687054    6.97907323227753
C         0.73816460841595    2.45222945934578    7.86537204435991
C         1.03318411978184    0.14010698209544    9.12580225527752
C         1.49262791623933    0.23490527055315    6.42337889471950
C         0.67884639394492   -1.03282770643389    4.34038460592218
C         1.18086305825705   -2.39592626970033    4.37872204846386
O         3.07519779521936    2.65319184737810   10.44320677918780
O         4.41877395306935   -0.71085245534956    8.46098656773577
O         3.94332021008819    3.00444480833920    6.43539857745314
O        -0.06691726749602    3.26877595592142    7.85923531861408
O         0.40547672578243   -0.44577611108537    9.88463018327990
N         1.10598737794470   -0.31263015932884    5.46450805381157
N         1.57707009675004   -3.46491761870898    4.41486694930286
H         1.04755131661057   -0.54378558906707    3.42861382492755
H        -0.41894355653339   -1.05927091006693    4.31607723662098

