58
CSD_code = YUBZUS | q = 0 | S = 0 | Stoichiometry = C21H31NiO3PS | MND = 5
Ni        5.21222716187643    3.90918730289200    9.48326002791081
P         7.16329235580747    2.97655084867482    9.10966838094240
S         6.51922569491939    6.06473478492249    9.38530252913185
O         5.64517378581244    5.42912318927017    8.35774136659789
O         6.50103788259507    7.49742510781921    9.34456926678541
O         6.28194904210800    5.46717681716634   10.70403201150617
C         6.30818272398599    1.77392503421811    5.26318909573408
H         5.83079479589512    2.36324310297567    4.47866697106955
H         7.27824304328369    1.43927194807468    4.88645959950292
C         8.42473436197159    4.20571079833883    8.63054226367036
C         9.64552575414292    3.85387387801278    8.05343711659589
H         9.86364012383915    2.82235619347860    7.82238679020691
C         7.99206494666500    2.05157585117340   10.49929146524648
H         7.24601659791535    1.31033879802696   10.81585610906589
C         6.51635256886177    2.63848501237558    6.50176954978545
H         5.55033233865657    3.03105174764613    6.85342653722592
H         7.14480614539780    3.49948997927747    6.25927554978311
C         6.29819186853338    0.61021699827989    7.95678361656302
H         6.76391161518434    0.01758699926134    8.74708023598194
H         5.32384290134379    0.95491311776048    8.31708141884029
C         5.45024053092490    0.55836323677034    5.59873797218341
H         4.46315105804406    0.89241773597459    5.92436821394027
H         5.31952188737733   -0.06410482791470    4.71143930138946
C         7.15048089356767    1.83700037194414    7.64032320793474
H         8.16175297540540    1.52638861001344    7.36193466700501
C         9.95619710240899    1.50358191427283   12.60154366850296
H        10.26417434502243    0.93905322122123   13.48392424290092
H        10.75532128318249    2.20770815285247   12.35959408423135
C         8.16508082968739    5.55153871263913    8.85484686867278
C         6.10145293144126   -0.25356806274949    6.71335482833764
H         7.07029055359454   -0.62616101984160    6.37185990260719
H         5.48012172315982   -1.11701163564439    6.95944299202202
C        10.32165411274518    6.16082994050605    8.01057010923844
H        11.05802272472029    6.91478395411316    7.77657909265036
C         9.09721205923917    6.52234073139157    8.54819513991829
H         8.83179225217827    7.55169793829543    8.73070731600333
C        10.58526836012078    4.82485281319941    7.75257073393859
H        11.52731901527814    4.53581639549897    7.30931062986729
C         9.29517785326029    1.32269981631619   10.18511712419204
H        10.06844048300575    2.04451712177955    9.91963780996717
H         9.16414798220301    0.62813418824619    9.35291600706588
C         9.75078437004639    0.55294807443174   11.42564587757041
H         8.99676995127311   -0.19270291450022   11.68850906843521
H        10.68147054224388    0.02421837302779   11.20859408802082
C         8.21350392362703    3.03121157211418   11.65306227901693
H         8.97569628906221    3.75998180627936   11.36410472480534
H         7.29400559940429    3.58757217551357   11.85120688879999
C         8.67461871351951    2.27865051401941   12.89718693297554
H         8.84593346750042    2.98159777728528   13.71380556350838
H         7.89390731742655    1.58257827169865   13.21252499190394
C         3.21210502693869    4.47180964142559    9.81946849410983
H         3.46531274048337    5.08332698845066   10.68540311905231
H         2.53463428994787    4.91777155259282    9.10280190932889
C         4.44161929689357    2.61016745776971   10.69017516744469
H         4.62242729618487    1.54067301298106   10.70885287631538
H         4.59656526814918    3.10392925205809   11.65180028450365
C         3.40271486367461    3.10289871718261    9.85596911502976
H         2.91336437826295    2.45035090914129    9.13779480445774

