71
CSD_code = YUCHAH | q = 0 | S = 0 | Stoichiometry = C36H31NO2Pt | MND = 4
Pt        9.36158310473888    4.60685237244486    6.07902179830098
O        11.34767335485449    3.85619445234255    6.01943540278545
O         9.94107170503991    5.69165883831297    7.67671373934009
N         8.72057262124230    3.41509137743558    4.67657771294532
C         7.46449858833773    5.22697368244932    5.99729971461078
C         6.65683734832102    4.45888483990178    5.13073450305808
C         5.26799883406740    4.77839767928465    4.85771161840026
C         4.43644168795122    4.55667790530744    3.71342822211100
H         4.77369164830773    3.89561880209088    2.92875013110483
C         3.27399160366877    5.25779052552943    3.48179169853415
H         2.74959180273016    5.09120103453496    2.55017353123699
C         2.81377928084998    6.28863857694903    4.35451503153740
C         1.93254854913560    7.38970830361018    4.10392225757624
H         1.27707833988579    7.34531706176382    3.24441948578026
C         1.97347218339930    8.54506335951942    4.84570449843696
H         1.34825098870441    9.37686313054653    4.54976410172622
C         2.90378974797249    8.72971794336634    5.91868389896279
C         3.58603595509079    7.58451868281059    6.28189111534313
C         4.81416837756694    7.60891810771620    6.97656783644572
C         5.51815148792751    6.42566955543284    6.66491617217183
C         4.72681583496310    5.66837578679120    5.76704267755745
C         3.54060349565745    6.39308606340089    5.52580547437898
C         6.89938343168054    6.35247308623988    6.69151189174819
C         7.53501019863437    7.52046660205403    7.22350904776927
H         8.61265896401036    7.51880359025045    7.28232314820421
C         6.84871066526166    8.66873524205893    7.53698619262792
H         7.40484502929610    9.54161620502026    7.85270433245504
C         5.43900901100591    8.79115508755041    7.33055832534154
C         4.62898727291429    9.95971423358385    7.16034085316798
H         5.02016968143716   10.91417798771117    7.48664572101563
C         3.42705125960027    9.93145435656370    6.49514814235647
H         2.90660175724655   10.86337288746973    6.31877705410072
C         7.37502459471001    3.38071520524863    4.48260951013861
C         9.49613367537916    2.50206420326722    4.09528600611132
H        10.55823794548798    2.59175663538266    4.27804667940418
C         8.99203639785002    1.48430310943574    3.30995463753196
H         9.65853104274104    0.77429678200929    2.84785744444635
C         7.61354249002153    1.38092074987774    3.16465869913243
H         7.17999248290006    0.56743005014299    2.60282552699580
C         6.80618116674709    2.32959176237575    3.75830032021285
H         5.73475336340851    2.24500689736697    3.69719298532128
C        12.30551324081368    4.18090007955642    6.76472710136409
C        12.22421780721187    5.05276362820743    7.85606860157705
H        13.12012232639630    5.21423341469357    8.42575410416144
C        11.06616014667872    5.70942307741365    8.26345234819366
C        11.11377998748748    6.61307044624039    9.51031087301110
C         9.76642845091944    6.52951931555827   10.23652015335293
H         9.62624950655515    5.53363538513941   10.65173315160243
H         8.94587141539726    6.73248418402141    9.55447511243928
H         9.73409746088667    7.25232420230555   11.04879610924241
C        11.34352895161332    8.04470977814531    9.00612843001803
H        11.38671709230837    8.73442813089727    9.84657188347739
H        10.53415167537174    8.35116766892097    8.34825261409751
H        12.27969743951393    8.11006202150284    8.45453744277099
C        12.22221395291864    6.23604413987212   10.49572336806940
H        13.20803351820545    6.48953183655092   10.11333747788209
H        12.19333332820736    5.17312148985040   10.72479254758837
H        12.07829810239507    6.78793020994449   11.42262827093963
C        13.67140728163917    3.54447911043490    6.45497513011648
C        14.13146031462252    2.71231986485731    7.65702409342786
H        13.38827150728303    1.95605770952287    7.90147856710139
H        14.28866453018468    3.33308855832778    8.53484322470750
H        15.06834113164915    2.21074522000459    7.42191096957838
C        13.54643059571339    2.62913343336278    5.23428623347442
H        12.83214561672659    1.83183329548423    5.42827091625057
H        14.51048608068586    2.18174186900438    5.00238386441145
H        13.20878617152941    3.19368380178920    4.36786249000249
C        14.68970270913169    4.64830119381737    6.15019427429690
H        15.64668134263672    4.20448558986085    5.88220641050022
H        14.84330914490337    5.29582884157632    7.00915013926729
H        14.34849219975512    5.25977974798411    5.31739695667764

