59
CSD_code = YUCKUC | q = 0 | S = 0 | Stoichiometry = C30H20MoN4O4 | MND = 6
Mo        8.20381267642773    6.00521292824074    4.31530230276563
C         7.27894607910632    7.36287066224057    3.20643319434290
O         6.88059099952632    8.16607047280663    2.49953624670956
C         9.65706097486231    7.33600723503090    4.26489529741753
O        10.40917608774841    8.20103103524466    4.24440440612426
C         7.91919710471545    6.78366669918690    6.10412931409379
O         7.87063207081940    7.19033118411809    7.17480271943864
C         9.09213849261217    4.57430730152638    5.36028138663123
O         9.50109264683484    3.77095411255877    6.06088908946615
N         6.61577509010874    4.69622597224347    4.22377637481102
N         8.51774472901274    5.02900880832389    2.53005125809783
C         6.47699878138512    3.96192532175046    3.10429724259797
C         7.69449756312982    4.00687780933646    2.22643910908573
N         5.50768549411686    3.20232255500138    2.74079399476261
N         7.77694572574740    3.14649011184152    1.27739031700810
C         5.22122375217936    5.42376396391196    6.03870380105874
C         4.44331739684537    5.14601042884822    7.14447828856157
C         4.25311449776431    3.83678087510292    7.55612356971430
C         4.84960273590613    2.80319508056207    6.85241566350521
C         5.62469566951294    3.06873296648397    5.74176995525889
C         5.82126362313346    4.38659067724137    5.32037436790608
C        10.70190562545603    5.79119838375534    1.88408278237538
C        11.57263036942044    6.27853797947668    0.93056854776702
C        11.14308573340977    6.48430273826511   -0.37057566113362
C         9.83117004187915    6.19923426238479   -0.71268378069596
C         8.95300807803118    5.70691342323565    0.23128526798429
C         9.37850889292385    5.49711304790536    1.54603679334688
C         3.55965976043513    4.52333577014673    3.30529566615257
C         2.22480998808691    4.56123029582726    3.64234811884331
C         1.50867721831570    3.38411205014248    3.80655961890186
C         2.13423669674437    2.16217481280720    3.60418644998341
C         3.46359869811560    2.10900579163595    3.24636029455294
C         4.20682702046212    3.29091679524649    3.12068648065378
C        10.12824661819090    2.57042115987718    1.29239070699919
C        11.22844398617722    2.11080974507831    0.60282290240845
C        11.13722279011902    1.82008281776854   -0.75081492113197
C         9.92407945638979    1.96811119263104   -1.40785303758301
C         8.80986714987779    2.40670562639859   -0.72644015876304
C         8.90218139185031    2.74415517696106    0.63084725521981
H         5.34607589286317    6.44411344160379    5.68852424234797
H         3.97944966095585    5.95653272491400    7.68650509127481
H         3.64500356677362    3.62334782233354    8.42154396058213
H         4.71368858983812    1.78125703348275    7.17315717734894
H         6.10577674333986    2.26423571285220    5.20262200491384
H        11.04040033062514    5.59175222173715    2.89640011510775
H        12.59442982647123    6.49559284756479    1.20391236930746
H        11.82641192685867    6.86603619361231   -1.11329814175904
H         9.48704134817051    6.36553880757442   -1.72245323993194
H         7.92381153927631    5.50238226996799   -0.03007045775002
H         4.11818583607926    5.43896018544186    3.15728410759929
H         1.73490165354855    5.51401202546730    3.78111286711014
H         0.46488669290531    3.42021500560378    4.07934375599819
H         1.57416611199800    1.24585773056753    3.72034362557907
H         3.96417943987643    1.16676300503027    3.08778762365142
H        10.18919438933202    2.78025075418349    2.35286900858657
H        12.16735229469123    1.97849575856529    1.12050823105379
H        12.00519391531284    1.46843454433032   -1.28765146002114
H         9.84960519867342    1.73083836786279   -2.45902209385504
H         7.86057333546960    2.52884627590669   -1.22391001177723

