51
CSD_code = YUCKUE | q = 0 | S = 0 | Stoichiometry = C13H32ClIrNP3 | MND = 6
Ir       -3.18080818097414   10.54237110548589   18.03508853209940
H        -3.27656038046211   10.84658046712762   16.53425798652986
Cl       -3.26513841730530    9.87389114311009   20.37939712356999
P        -4.50411368203688   12.40289843732974   18.52479749748707
P        -4.92293651901997    8.96362960110692   18.10687601231673
P        -1.47515011638364    9.00100075580410   17.63499695489326
N        -1.63240472523395   11.86518915304591   18.21138538884210
C        -0.97525651266642   12.11874297196934   19.36969188614757
H        -1.24224282872577   11.63250556184212   20.28954525785424
C         0.01500601949767   13.04614657005309   19.15220765685818
H         0.69411879961094   13.43727229827009   19.88727775613994
C        -0.03980582766329   13.37614256532172   17.78807593020266
H         0.58991387017512   14.07231752454148   17.26552072833926
C        -1.06060186610862   12.63214071540965   17.24843228348678
H        -1.41179865649615   12.60517127412031   16.23282395277227
C        -3.69066155311952   14.03151625919382   18.35505434521443
H        -3.29788847498810   14.13736835565044   17.34665708480940
H        -2.85925409912262   14.09691636065575   19.05417960938043
H        -4.41146171646596   14.82290634294664   18.56108832459351
C        -5.16180795903953   12.57291392283985   20.22290647453811
H        -4.31760436165148   12.52841609468530   20.90899361256740
H        -5.83671678999168   11.75686157436018   20.46418903126608
H        -5.67653173785968   13.52769584995179   20.32950232678017
C        -5.98767397875527   12.70920000078355   17.48061900512176
H        -6.64762745505725   11.84567117824753   17.47151263362731
H        -5.64591383715358   12.88981717252463   16.46345794009162
H        -6.53239621447966   13.58001528884280   17.84299585391631
C        -5.78345189247343    8.56133951944086   16.52827755450230
H        -5.05600480729750    8.18326138317623   15.81327628635596
H        -6.21437491298803    9.47240018715112   16.11863065269521
H        -6.56772926554360    7.82085131592434   16.67965507825953
C        -6.36962401233312    9.29178657008458   19.18469517935251
H        -6.87272609137878   10.21095412699724   18.89349344264852
H        -6.00968975582970    9.38304386348056   20.20764210389705
H        -7.07116096849535    8.45973931626993   19.11799735100788
C        -4.55609615482687    7.27307154141825   18.71599342591366
H        -4.19541273145760    7.35872257941668   19.73913985711499
H        -3.79614194919555    6.79195480512800   18.10500610309515
H        -5.46641982814291    6.67318974270048   18.69845272515665
C         0.14461103303694    9.69738890345245   17.15069407148711
H         0.52929938564342   10.32173438894359   17.95449004778811
H         0.02106702360795   10.31666186177599   16.26543631315029
H         0.84328366349302    8.88637732257347   16.94466575798488
C        -1.68713594263816    7.79621588918228   16.26010683873809
H        -1.74726975789723    8.36054769070069   15.33157341668452
H        -2.60362058650367    7.22322531015914   16.37254932938029
H        -0.83666098354859    7.11684124908134   16.21953005603419
C        -0.94778723283072    7.94262545339899   19.02929057189512
H        -1.76836627111108    7.32255284991390   19.37897302437120
H        -0.65017952230345    8.59998138834345   19.84475049078621
H        -0.10609123751034    7.31833419606953   18.72974913225443

