39
CSD_code = YUCLOX | q = 0 | S = 0 | Stoichiometry = C19H15FeO2PS | MND = 8
Fe       -0.09062486965061    2.65421146751007   11.51285802753614
S         1.67935082707546    1.77782734073946   14.40422531409706
P         1.76509423415488    2.77778826520127   12.73699575614769
O         0.80070998528262    0.02591624463104   10.71404648349153
O         1.23655349718640    3.44400267365184    9.07245263729815
C         0.43223456624994    1.04985428290741   11.06125519492548
C         0.72379321977085    3.18643374797682   10.06397553079762
C        -2.17731591346449    3.40725196289692   11.10723941790320
C        -1.50092924007266    4.33738001904576   11.94014985207075
C        -1.21531202693632    3.69823320074821   13.16955275822485
C        -1.64902062854685    2.35670910582802   13.07408857948219
C        -2.25759625971323    2.18271821678889   11.80307412655895
C         2.15463140843174    4.54742603796561   13.05595818572323
C         1.78751613682621    5.55484140211537   12.17176345757406
C         2.11784474061923    6.86928673760398   12.44496308800885
C         2.81227595794513    7.18513548270548   13.60213937810454
C         3.17565913244312    6.18375662357789   14.48706108230055
C         2.84658423895744    4.86749121185735   14.21737771856139
C         3.23864394113169    2.26549109769470   11.76894585775902
C         3.88195141387113    3.12838882858174   10.88782947761560
C         4.97081627698718    2.68343657750879   10.16155239700925
C         5.42120702652617    1.38087554762403   10.30507186615301
C         4.78686235130575    0.52157008253409   11.18667570287073
C         3.69975448816537    0.96236429793169   11.91800155918370
H        -2.62530414702768    3.62539061357128   10.15142339762274
H        -1.39088699353043    5.39136014826874   11.74247145719546
H        -0.79951779054678    4.16626274482685   14.04775093550270
H        -1.64711387255929    1.64079767495637   13.87885725704443
H        -2.78321355228602    1.30135627315404   11.47352114555144
H         1.24226354014094    5.30122994608083   11.27122887003785
H         1.83221534292607    7.65037962313900   11.75499010656755
H         3.06633236538771    8.21325711353914   13.81399207034180
H         3.71508786942025    6.42778759586086   15.39029280730259
H         3.11464224825204    4.07747289175764   14.90571630556053
H         3.53678167841664    4.14654218908763   10.77664458125708
H         5.47012525770329    3.35655814437011    9.47995078766311
H         6.27093957555426    1.03857800755560    9.73302581076524
H         5.14020415099641   -0.49186606943731   11.30647274021636
H         3.20605982260944    0.30570264764522   12.62210827798468

