48
CSD_code = YUCMIU | q = 1 | S = 0 | Stoichiometry = C21H20ClN4ORu(1+) | MND = 6
Ru        8.54875061957545    8.54831246984021    6.70743863217471
Cl        8.54548482388894    8.54856726736398    4.36429810449485
N         7.37977457905887    6.83270649522877    6.62980459028104
C         7.64062025110262    5.88444391507978    5.72763208960103
H         8.50819213243415    6.03051470090517    5.09579883683289
C         6.84221663378577    4.76511779540261    5.55967999655154
H         7.09963440957808    4.03471376545577    4.80983105819760
C         5.72187930084286    4.60873709057784    6.35842933489133
H         5.07840599319713    3.74988678846503    6.25202864530668
C         5.45146289707875    5.58975863442321    7.30150946253084
H         4.59509379171860    5.51652216430445    7.95200051673961
C         6.30000602593960    6.67655098784485    7.40353889191203
H         6.10919080644557    7.45042359761656    8.13902249293123
C         8.54824081288568    8.54842022210046    8.55102050064431
O         8.54808435589236    8.54846637335300    9.69752350399229
N         9.71684218155202   10.26443325407589    6.63012451326159
C         9.45611087826258   11.21259693794677    5.72779912357690
H         8.58853892132765   11.06652647355516    5.09596648563368
C        10.25463795771991   12.33182992274005    5.55970372003308
H         9.99727394925502   13.06220699050656    4.80979548331946
C        11.37499575559442   12.48816311514608    6.35843119586485
H        12.01853467040646   13.34696556256532    6.25196540159847
C        11.64538230370907   11.50713838527155    7.30152923852444
H        12.50180757770661   11.58030851390703    7.95194301142654
C        10.79671139565510   10.42045157861188    7.40370342994833
H        10.98753719019866    9.64654664423283    8.13914643639461
N        10.26456348342482    7.37991698837337    6.63015962002388
C        11.21275123646565    7.64069976370510    5.72789342566092
H        11.06669188497056    8.50828167928975    5.09607674939980
C        12.33194835724867    6.84213682520177    5.55975150377811
H        13.06232742604509    7.09950954285674    4.80984955476684
C        12.48824552680627    5.72175081347701    6.35843824657106
H        13.34704118937957    5.07820521133536    6.25196512560316
C        11.50721373233431    5.45136012657721    7.30153065220988
H        11.58037662596972    4.59493272048135    7.95193865801965
C        10.42052803140588    6.30002615278869    7.40369840296905
H         9.64660986497195    6.10920589774162    8.13912962742418
N         6.83278285347244    9.71691035461951    6.62988078963157
C         5.88457683643808    9.45614415591269    5.72758853082860
H         6.03065880106932    8.58857020633436    5.09575334304027
C         4.76523204067705   10.25454379270626    5.55962158314017
H         4.03483068599648    9.99712726387084    4.80976308027425
C         4.60882021613300   11.37486962587537    6.35838836981867
H         3.74997102566613   12.01834629524618    6.25197205464453
C         5.58983734289357   11.64529507014389    7.30147287847217
H         5.51660205118311   12.50168339078845    7.95194019522614
C         6.67660863515869   10.79671805295354    7.40356889959911
H         7.45047193747398   10.98755642320074    8.13905401223568

