97
CSD_code = YUCPOB | q = 0 | S = 0 | Stoichiometry = C40H52S4Ti | MND = 4
Ti        5.69459301394527   14.32738779700339    2.30497633522067
S         4.20957418432580   13.61267750800932    3.93814820971780
S         5.03533713883883   14.75472555524030    0.15087410917572
S         6.38536934511943   16.44798252439410    2.90135753311208
S         7.46925162403804   12.87658174445925    2.11846872701227
C         2.94977738730882   12.43246165512731    3.54030034455618
C         1.62792235130988   12.73821920898991    3.88024142959202
C         0.65526682812071   11.75264744267124    3.71040430865874
C         1.01583301755987   10.52024285359431    3.18897140670782
C         2.32326154178396   10.21967073167567    2.83802170460560
C         3.31293304225362   11.18065712488965    3.03099940049497
C         4.06205547045486   13.27348245738079   -0.01242512742462
C         4.63090877662172   12.12434972575679   -0.57438171574537
C         3.80923783812485   11.01626550993539   -0.78748813548224
C         2.45586322823515   11.10711244146825   -0.50454400536099
C         1.88359025048873   12.25344920261929    0.02670901223015
C         2.70078587424234   13.34496617859067    0.31590034194683
C         4.77585245286423   16.93234435655561    3.48581131503024
C         3.87365555438226   17.54268347962698    2.60468440575111
C         2.59925634997784   17.86941055857251    3.07372314785082
C         2.27259972981640   17.61298807025496    4.39570990998966
C         3.18465440774361   17.06421734040430    5.28511516014630
C         4.46147157733863   16.72595760280046    4.83630389181563
C         8.44689589305610   14.13507456779427    2.90283737419384
C         9.08737061658523   15.08617607064679    2.09973347431552
C         9.85337280690479   16.06892343758470    2.72533330107034
C         9.95929886401804   16.05993755347597    4.10875573397320
C         9.32173105707400   15.12052239006302    4.90688746582319
C         8.54756196782802   14.13288127282675    4.29908096556448
C         1.24439377428210   14.07316631117601    4.44122128100263
C        -0.76931287470763   12.01203302096826    4.10303903226241
C         2.64221654725279    8.85933310233153    2.29010667141588
C         4.75532982517410   10.90867664721897    2.73020882743605
C         6.08101459592012   12.06580029471054   -0.94888310856677
C         4.37940222137151    9.74935261799120   -1.35023098025792
C         0.40032882041953   12.30774409393594    0.23996960032919
C         2.15424699089014   14.60427213308161    0.92389199310793
C         4.25475559537727   17.88555586074697    1.19583076385275
C         1.59308076231637   18.49934772820223    2.15897500672074
C         2.79370831890870   16.82580313058612    6.71185492387476
C         5.45867259565798   16.15008131844052    5.79719830727062
C         8.87963457536469   15.04191158711031    0.61342222448355
C        10.53942857637019   17.14464562374797    1.93663119840525
C         9.47065277388103   15.19448910919724    6.39925623997852
C         7.79444088172367   13.09298220617666    5.07792212400315
H         0.25268391193037    9.76552792512127    3.05901695487786
H         1.81953334933930   10.25917691864378   -0.71572864467499
H         1.28086271847692   17.85986774405589    4.74877753004268
H        10.55122514582127   16.82782247462677    4.58690983212666
H         2.05869884852957   14.78716073158972    4.34415860305684
H        -0.83118430881532   12.28233393963648    5.15645140470953
H         3.12041367453435    8.93927111968383    1.31590247539529
H         5.12006708039621   11.61926821889280    1.97406349705917
H         6.19449689040346   11.71872276173243   -1.97470188607567
H         4.75420155800355    9.91205728349395   -2.36055373483387
H        -0.06209739025998   11.38660165760264   -0.10484246211715
H         2.83727331665545   14.98552637951303    1.69714412699489
H         5.29125359011183   17.61596574473526    0.99357687012065
H         1.94799590062764   19.46770480899646    1.80724672843731
H         2.94198804806880   15.78003316950251    6.97787979019604
H         6.43702406060333   16.04873455113550    5.32678038557228
H         9.00928089871950   14.02192738139727    0.24708920169817
H        11.26002450279766   16.71874580339782    1.23920719045244
H         8.50073484336985   15.30922586257577    6.88170101931781
H         8.02844296547242   13.13043763727198    6.13628551055520
H         0.99754904713824   13.98047116854783    5.49918884804674
H         0.36979105481030   14.47296248049419    3.93010706012083
H        -1.37788481709507   11.12681248868357    3.93601988058466
H        -1.19461559372630   12.83454742558518    3.52715600247800
H         1.73068347597549    8.27711701703755    2.17957772794187
H         3.31118075615038    8.31896274789256    2.95927596811342
H         4.91074249084028    9.90317571551830    2.35687486904930
H         5.35828569219064   11.04094441873504    3.63342272921758
H         6.61906827841561   11.37509978052945   -0.29636675068638
H         6.54414143650230   13.04891802123335   -0.86239164467356
H         3.62092022225523    8.97114483548794   -1.38962222648232
H         5.21277601498123    9.39882228409612   -0.74239570403912
H        -0.03439232153630   13.14044556834882   -0.31163011079488
H         0.16485732392095   12.43084937002563    1.29469995892835
H         1.18259199510544   14.43732422100556    1.37603846893522
H         2.05538617529943   15.37536118396460    0.15738905942282
H         4.13870459625413   18.95683881186681    1.03200608768127
H         3.61973389214437   17.36722146198074    0.47739151057523
H         0.64705995851897   18.64572626321952    2.67412934992922
H         1.42025835618158   17.87307056151610    1.28468169982664
H         1.74913201901957   17.08199334115385    6.86983228915722
H         3.40277625759770   17.42976036706709    7.38402205563585
H         5.12948664639510   15.16708328232009    6.13964385507932
H         5.55642897595974   16.79590453542735    6.66897049452965
H         9.57121994317754   15.69273043111917    0.08965980569506
H         7.85307541911136   15.35964369950421    0.37605440895766
H        11.06782304847488   17.82186500620862    2.60261511945547
H         9.80966987706919   17.72016405559794    1.36896607680181
H        10.09054828471174   16.04447916181087    6.67268262114838
H         9.94074692854995   14.29083092280507    6.78619817516299
H         8.03583355352255   12.09802511682473    4.69934263055498
H         6.71192523544569   13.24470099487294    4.95217116093852

