85
CSD_code = YUCSUM | q = 0 | S = 0 | Stoichiometry = C37H31CuF12N4 | MND = 4
Cu        4.46307540855986    8.05316094383376    2.46872726718283
F         8.46841019841698    5.88927491086843    6.71412290823361
F         3.28686519136375    2.48964158244888    4.58219692942518
F         2.85587230628738    2.91582079278812    6.64427229297567
F         1.80671480497723    3.96282548292969    5.08578851175719
F        -0.53412294137354   12.11055797426167    5.64866844913232
N         4.72095289834914    7.98472237882506    4.25231189940440
F         8.27087501563617    3.85858476319962    6.03451926058901
F         7.43081011124130    4.44638863677206    7.91930946668598
N         3.43915613330590    8.29356638199571    3.93383017718024
N         6.07299261158091    7.60880244695429    1.66524801881327
F        -0.44860675111392   12.48160679965103    3.53727155011882
N         3.38944245185608    8.37980683321018    0.99401866369634
F        -0.96534917085307   10.52545398081516    4.26568550501862
C         4.89049679943407    6.71158591759146    4.77749536972007
C         3.86098483910949    5.76449656835319    4.83849893288160
H         2.89423918770057    6.01168396835803    4.42626779366618
C         3.08252214492611    9.60853501206803    4.19726341319740
C         3.99916138289546   10.58427308869624    4.60763419393576
H         5.04315104976398   10.32239399529270    4.69190775150321
C         2.03646164317683    8.76775591936729    1.17194103940492
C         6.12739294284045    6.41357353920768    5.35852451282410
H         6.90886420873380    7.15605746249825    5.34809098146780
C         5.31282573969669    4.23106640482482    6.00743733462845
H         5.47372215205449    3.27844546025605    6.48786918818676
F         4.58571557398719   13.91340468200324    4.37278512499449
C         1.72256915330841    9.93008224825247    4.14025738948457
H         1.01075121617483    9.16910383303525    3.86388365217070
C         7.19660092414135    7.26913233174002    2.46213007561089
C         4.08579375424689    4.53855274328228    5.43303768784567
C         6.20471069766148    7.61665769368077    0.35326472745404
C         6.31706140512198    5.19042455730898    5.97589887940792
F         5.79378273878347   12.48428115594403    5.42868370096685
C         1.30505816948035   11.20425452581623    4.48019603730652
F         4.21769357897535   13.52787219130038    6.45501365639284
C         7.49113721071232    5.92730872232752    2.71804511547752
C         3.00738094734534    3.48964505427961    5.44227475258662
C         7.99465940443814    8.29339252194455    2.98469136324174
C         1.06886132137589    7.77880434354127    1.38431900280867
C         3.56052832390412   11.85813663465934    4.90994093127227
C        -0.15508357857941   11.56630381550051    4.48000070076540
C         9.46279289355995    6.62624242488338    3.91529680389222
H        10.35466904304101    6.37511697659987    4.46750054597671
C         3.85508630897807    8.24298175140863   -0.23201072478254
C         2.21233986836870   12.18886817345315    4.85015873616262
H         1.87650249472800   13.18165022773702    5.10681154389792
C         6.59502738772774    4.82955361388313    2.22638034774014
H         5.58229956827264    5.19722192527005    2.06583396847486
H         6.56676807449762    4.01544409732813    2.94774590499067
H         6.96037476904698    4.42344934761475    1.28267660955527
C         7.54687746525758    7.29178773744441   -0.24163353922078
H         8.33334112700405    7.84809562111857    0.26384579398397
H         7.56721417175130    7.52486069542802   -1.30162743698227
H         7.76402794697667    6.23281835122380   -0.11392803481945
C         7.61821470057126    4.86000604802955    6.65462858884202
C         5.16855500677459    7.89952170505096   -0.52853934086588
H         5.41540515416231    7.84595495303153   -1.57687307813309
C         8.64469125902622    5.62371831311978    3.43006495178451
H         8.89474334615057    4.58830548254796    3.60611669511361
C         7.63099358350348    9.72552680770449    2.73577675824277
H         8.12997638737591   10.37916492096454    3.44644873644848
H         6.55117759955751    9.86014958400175    2.81885314366987
H         7.92055877572516   10.02726313312341    1.72834801037767
C         2.92578248100744    8.48065814227089   -1.38980955135121
H         1.98368313905836    7.95801254032169   -1.23719455352954
H         3.37400574086215    8.14807007618836   -2.32107951124020
H         2.69929927995628    9.54242545334267   -1.47202974761266
C         0.34277033482527   10.46134840167442    1.23284411109618
H         0.06172949624309   11.50223017714124    1.17765608607194
C         9.12402578514959    7.95342373571912    3.71330366787763
H         9.74830195984936    8.73677203974056    4.11667399800410
C        -0.25905768182442    8.15862116664466    1.50171793583855
H        -1.01296163109703    7.40246325295450    1.66252124381273
C         1.68607916004940   10.11987991867797    1.13788434005028
C         1.47729171963401    6.33938414818484    1.46307268908705
H         1.67713666037257    5.94028665758473    0.46789614586611
H         0.69495435346008    5.74114917585349    1.92252136865249
H         2.39567159753384    6.23980181577394    2.04423960857480
C         2.72760748969179   11.18881990406670    0.98748125089382
H         2.46781991630515   12.05442842913923    1.59354030989402
H         2.79672524705451   11.51990353318956   -0.04910315152226
H         3.70722645865827   10.82335405545754    1.29231832087979
C        -0.62542560014874    9.49020834820970    1.40256647221804
H        -1.66415883442144    9.77095046878634    1.47730706497411
C         4.53952479435365   12.93306836523288    5.29637271160208

