45
CSD_code = YUCYUR | q = 0 | S = 0 | Stoichiometry = C18H18O6S2Zn | MND = 4
C        12.75913684870991    7.01120817148195    4.38689854636969
C        11.44223493221845    6.52816733943397    4.43268128715565
C        10.37631239265911    7.40706684399327    4.59146873865149
H         9.37423708788261    7.00683469597645    4.62841344495504
C        10.59410257544611    8.76571088791607    4.69254590330445
H         9.75745110714952    9.43583977122096    4.81805812814032
C        11.88792209245010    9.26255078953684    4.62421071266064
H        12.06636989763472   10.32446875461157    4.69694595353571
C        12.94835196077745    8.39403140620846    4.47344270744504
H        13.95722828125645    8.77617245076140    4.45142287298912
C        13.90282670698235    6.12259827232851    4.29705502831068
H        13.80455614194577    5.13751465114692    4.73993053911942
C        15.07917623801533    6.41052982044231    3.73033421636336
H        15.29081508971715    7.34886999690693    3.24226401097700
C        16.16863200909503    5.42276327801855    3.70858641730233
H        18.36769001111541    3.37032914005349    1.07398679168765
H        17.27426451184080    4.45196144264558    1.14029022429978
O        17.25925520925007    5.71968524783295    3.16118411588369
O        16.00818859586565    4.28614600514963    4.22240551455852
O        17.47769831565510    3.54559408244152    1.40100279437342
S        11.01159971950154    4.82166038375195    4.25827230157087
H        12.18905389091300    4.38170505290453    3.82376632023870
Zn       17.89285641083596    3.85744327799581    3.62324850341185
C        23.02743714962612    0.70756844303359    2.85616432074121
C        24.34311603339054    1.19387002148712    2.80934491002601
C        25.41108303733472    0.31757542710005    2.65008349966075
H        26.41212372915775    0.72029490835829    2.61219704689321
C        25.19651930003657   -1.04163587892638    2.54977649949521
H        26.03473797188832   -1.70971995839430    2.42385535933511
C        23.90401168287648   -1.54168068840736    2.61954697273870
H        23.72819522091791   -2.60409436011475    2.54769194649288
C        22.84149304123297   -0.67574265960067    2.77063482073046
H        21.83358042987852   -1.06037172104541    2.79377599250544
C        21.88205934487748    1.59387072601758    2.94631935275387
H        21.97824409928706    2.57865669316816    2.50226402401663
C        20.70679697932433    1.30500962502586    3.51472490414380
H        20.49658422642440    0.36689128931663    4.00384365306392
C        19.61708409054615    2.29247727295652    3.53692695021475
H        17.41909892819095    4.34587529346161    6.17236681288384
H        18.51002875318214    3.26171962453455    6.10511113460323
O        18.52661024870780    1.99552071544654    4.08469071266518
O        19.77736867743882    3.42913645316958    3.02323110903488
O        18.30880801128166    4.16877780811059    5.84524174654682
S        24.76970076264587    2.90138976029422    2.98353284697113
H        23.59085825482635    3.33875944225821    3.41696031118259

