94
CSD_code = YUCZAZ | q = 0 | S = 0 | Stoichiometry = C40H47CoN2P4 | MND = 5
Co        3.53500267610623    5.07344474602574    4.56693841725072
P         5.58092937908646    5.44567341904851    5.35476695001179
P         3.24096401292785    2.97812173410047    3.72042855725020
P         3.87227637102444    6.12129844518603    2.60552441259012
P         1.51753953750980    6.09127708127730    4.97468337590021
N         5.83786852026871    3.99337043744447    6.19646604700987
C         4.50568789493827    1.66497259977930    3.56356670054423
C         3.38914912752161    4.02212139575196    6.34867133067625
C         2.16898695106885    2.55457618956783    2.29831604918867
C         7.17767913814547    5.54243051030681    4.46726950144124
N         2.25258501769017    2.37669961511534    4.96332137220286
C         4.69080536158701    3.30607924089201    6.51249218562779
C         5.52719363525127    1.85623774311571    2.63712763757786
H         5.50961817004535    2.74050857849612    2.01216382398355
C         2.56458807419530    1.81916105807323    1.18821882059059
H         3.55517187149053    1.38963778098119    1.14495928640200
C         3.19358341191057    4.84294367290178    7.63076369517858
H         2.25000913454148    5.37946762231625    7.62905429340280
H         4.00259930426350    5.56155593453625    7.75344379594075
H         3.20545528410015    4.17436280751709    8.49466688824777
C         4.53040184887078    0.53617148759091    4.37308879838662
H         3.74724353149273    0.37578832168236    5.09851393448002
C         5.93244155205418    6.72887177572488    6.61929990959365
C         5.55732836048952   -0.38253692806074    4.25202221654741
H         5.57119451892638   -1.25608405925221    4.88762532311945
C         2.32525276673065    3.00112405178224    6.18615953931136
C         1.40972598621842    2.40596967953521    7.01346153279348
H         1.21968102137446    2.64491136317152    8.04233889492100
C         7.63483351799380    4.40700757633444    3.80230100180591
H         7.06353248102608    3.49109747004688    3.86450049370921
C         5.05363473253775    2.11297601707602    7.07560653101676
H         4.39096233870905    1.35685123429590    7.45085202326320
C         6.54820852237707    0.93355365533997    2.51076606203701
H         7.33282289134538    1.09055468878619    1.78358054432433
C         1.29805016805502    1.39155715897458    5.01483340463584
H         1.07353003164132    0.78303631490904    4.15905113226725
C         1.63590871320260    7.63811842362047    5.97477764383266
H         0.64624601802104    7.96813201303556    6.28881459103305
H         2.09466739667076    8.41288993311882    5.36310579376248
H         2.26290391301884    7.47691581295100    6.84688911421912
C         5.29077922395599    7.95513963892737    6.49293491396593
H         4.60083281619102    8.09477058848665    5.67145661269676
C         8.80877378146744    4.44744307091540    3.07530253447653
H         9.16271711977291    3.55713898442993    2.57551422890464
C         6.92596022480351    3.23282165872212    6.54877145883542
H         7.93139259445732    3.56757666799708    6.37542072184970
C         0.88589012217673    3.09620641579298    2.32863268877805
H         0.59522175070137    3.68077575688664    3.19186850697204
C         0.11935685356210    5.26050976536933    5.84321558458465
H        -0.72329435097600    5.94692428975857    5.92465169073452
H         0.41127339246804    4.92382476811436    6.83198314433136
H        -0.18462770117560    4.38367747071656    5.27443279588754
C         1.68359721343758    1.61938099001484    0.13847576383237
H         1.99719164159242    1.04111976793812   -0.71913045525705
C         6.46934801841392    2.06763370628396    7.09015443910560
H         7.07261520301196    1.26148845380592    7.46289382143854
C         5.45516167813095    5.87863344494121    1.69720060944032
H         5.38172645959256    6.32261785207242    0.70447660458378
H         5.66817320054168    4.81700876895282    1.59997549953655
H         6.27222232574314    6.34475910801028    2.24169806059034
C         9.07004726733461    6.76656644124854    3.62516598259655
H         9.62786013797859    7.68949134302405    3.55357096865801
C         7.89777629783101    6.72797183483711    4.35965934552042
H         7.54402308332330    7.62037799392700    4.85793017669098
C         0.47106472853970    6.79377449034144    3.61880037623790
H         0.03337539107695    5.98499353986923    3.03729660474442
H         1.06164929233485    7.41999105286637    2.95604057533399
H        -0.33200444825463    7.39128853514967    4.04995378274293
C         6.39310713823136    8.74977352668069    8.46422999075297
H         6.57375074899005    9.53445975713250    9.18448843877979
C         0.00602678300252    2.89023314642262    1.28603463732319
H        -0.99148458844045    3.30524564467441    1.32557924443885
C         2.76686235490710    5.77181804143730    1.17133874484975
H         2.92954885273073    6.49987651764878    0.37702290887033
H         1.72197283392681    5.77412935107808    1.46216685631724
H         3.00883059398377    4.77486045530747    0.80435748090964
C         9.53103889848202    5.62733935396002    2.98640934277308
H        10.44958423835742    5.65976004760435    2.41888880236202
C         6.56709899211385   -0.18745660295089    3.32469961650467
H         7.36900429263491   -0.90589739173106    3.23634095818962
C         0.76083276671876    1.39077849464369    6.26824343041832
H        -0.01116291554363    0.73762392259990    6.62968989311505
C         5.52273511226049    8.96525725093222    7.40813230574547
H         5.02309839085362    9.91817058561065    7.30396371741460
C         3.91712912542177    7.96581870928943    2.59240968928229
H         4.77103018158940    8.27989869749343    3.19226668074183
H         3.01500238912050    8.38300159111906    3.03246091917175
H         4.03496511628005    8.34153976179898    1.57644997334533
C         0.40586662423633    2.15001948893975    0.18333462561652
H        -0.27735049978113    1.98808798114580   -0.63748351464642
C         6.80234814219972    6.51617517341557    7.68221859621469
H         7.29180846074858    5.55915039103220    7.79396842086686
C         7.02686176122544    7.52481008349539    8.60154673832027
H         7.70002770329532    7.35657301872461    9.42996283842670

