97
CSD_code = YUDDOS | q = 0 | S = 0 | Stoichiometry = C37H52MoN4O3 | MND = 5
Mo        6.53543829811485    4.16461441598959   14.03856786240898
N         8.48790966534796    6.60766831310743   13.74384393665252
N         7.45284610235424    6.72933112135341   15.64774997682206
N         8.84810980021608    3.71131598075038   15.52876235230861
N         7.45940219052244    3.66641602960644   17.19303014065635
C         7.42474539951507    6.11918005588370   14.43932998933268
C         9.26188926448971    7.41390453773740   14.54999583105461
C        10.51195730059275    7.99013954148885   14.38026615799434
H        11.05382755692592    7.90679348064380   13.45167714202262
C        11.06108475873608    8.65397156532472   15.46132377715290
H        12.03517273773724    9.10837559830140   15.36183207540944
C        10.39616942500490    8.73035017429626   16.68194537197426
H        10.86705761483101    9.24250161364567   17.50710008746997
C         9.15755234147694    8.14602956016485   16.86664427910658
H         8.66716611847940    8.18010403193275   17.82585034632911
C         8.59093709936523    7.49016513325800   15.78410255810243
C         8.71300022535215    6.39592886787927   12.33626086761134
H         8.15925165390724    5.49635918888761   12.05351425706036
H         9.78140518524713    6.22599071986694   12.16108290663357
C         8.22820741516544    7.54593082312870   11.41578337269034
C         8.08817827310342    6.95974439044050   10.00791107732658
H         7.30709461709643    6.20438413624808    9.98389153615519
H         9.02256323234437    6.50497166329658    9.68359165331330
H         7.82574694397630    7.74102893888713    9.29912099395830
C         6.87428184596316    8.07232746807543   11.88826688490615
H         6.98418732002313    8.63659126551828   12.81203092824985
H         6.17595235469928    7.25757900892418   12.06083393291865
H         6.45043107018708    8.73622256804516   11.13916658821705
C         9.23019887374645    8.70215960939586   11.37779487188300
H         8.88792930824584    9.46073401340703   10.67736043759026
H        10.20970582619860    8.35923753675077   11.04857654331231
H         9.32990204394765    9.17019667087185   12.35427593883677
C         6.39976233118439    6.62848094957468   16.61944080169659
H         6.84049726752935    6.53651378124826   17.61717292537522
H         5.85277416632781    5.71860985799719   16.37159066267210
C         5.37866746225655    7.79089295416443   16.61069935388674
C         5.95905903408876    9.06363904069369   17.22984674228112
H         5.20491908965250    9.84753389076630   17.23631612737436
H         6.81294580764919    9.42475659342139   16.66116511398980
H         6.27105160025879    8.88866219342310   18.25791944008277
C         4.17898374467600    7.32559053761691   17.44077693292881
H         4.49016327352218    7.03343398551138   18.44196729568263
H         3.69550729844529    6.47639423641897   16.96483480019455
H         3.44954642055678    8.12647458573998   17.53052083065597
C         4.92364455596628    8.08119111373394   15.18189385032497
H         4.63146889606442    7.16433371355089   14.67521349536499
H         5.72074925602454    8.55010041906884   14.61111062892258
H         4.07357688972382    8.75864216237384   15.19009228010805
C         7.53392098733342    3.68186374268905   15.84769285338374
C         9.62640125365653    3.84905442002878   16.65096458244127
C        10.97513526121850    4.09658722921869   16.85168093335465
H        11.66286531674965    4.18428481569291   16.02543897351870
C        11.40511455666663    4.26532925836235   18.15534696372896
H        12.44882477505847    4.46507162900236   18.34435506254704
C        10.52025852073434    4.19894616392925   19.22663108828269
H        10.89465187422459    4.34200198319484   20.22877276167992
C         9.16833205606608    3.97531251313728   19.03543465461140
H         8.48811794444704    3.95368766087443   19.87184274162216
C         8.72302333621136    3.80448935884251   17.73507294745810
C         9.17397080596668    3.61555549300968   14.13344603603244
H         9.90124987846225    4.39338229286404   13.86062724510583
H         8.21069749553180    3.77957277687157   13.57487533887122
C         9.72314354901695    2.24291336999529   13.67618181004844
C         9.45481167849519    2.12479981682742   12.17300863367392
H         9.92236048961086    2.94610231418615   11.63115239288186
H         8.38315929995375    2.13903011013549   11.97178323093187
H         9.85832333581290    1.19127019525745   11.78868219481934
C         9.02353102435392    1.10181680055406   14.41429304732605
H         9.36006768438450    0.14525081932733   14.02193399349024
H         7.94533401617390    1.16197537364466   14.28392340954461
H         9.25277995648064    1.12637077900859   15.47909890068600
C        11.23186434233270    2.15250696912560   13.92914615761003
H        11.62065187905500    1.22600105668114   13.51286220345059
H        11.44889773750326    2.15658953793748   14.99450442583176
H        11.75918190765023    2.98072046242963   13.45796951942920
C         6.23752157474192    3.48968569262313   17.93272159750148
H         5.42236856369714    3.86848618960837   17.31136241057719
H         6.29125699108340    4.08210250657700   18.85063241845150
C         5.90373011765189    2.02173257467741   18.28346384874560
C         5.81347060342201    1.19251840616205   17.00429961027549
H         6.78344794316351    1.12054505106344   16.51893294164546
H         5.11390487419705    1.64357052423978   16.30436540397962
H         5.47462576129117    0.18467419975721   17.23055803610022
C         4.54236153931277    2.02600875916244   18.98279797708839
H         3.77549128594659    2.41850473764821   18.31968270272501
H         4.56840676419541    2.63871549624070   19.88182666064506
H         4.26330458110159    1.01474511223814   19.26721056833545
C         6.95435379940725    1.41818297623324   19.21658022700163
H         6.69681719193984    0.38659114083885   19.44508397294303
H         7.00461498021010    1.96822266047873   20.15408543501151
H         7.94028470221290    1.42434349694541   18.75680042823849
C         5.90007252868188    2.36568804208234   13.69276360165936
C         5.89124865901580    4.61980825693472   12.26540156994088
C         4.74370124879416    4.48792333112957   14.61906968406176
O         5.44690660989821    1.34379931830316   13.44692098201621
O         5.48557335598884    4.80107780715141   11.20867256026635
O         3.66034640417055    4.61568873863424   14.98059930353239

