20
CSD_code = YUDFOS | q = 0 | S = 0 | Stoichiometry = C6H6MnO4PS2 | MND = 6
Mn        2.96009840151497    1.90619688774129    2.77103047766398
S         3.27962672413317    4.16649266208250    1.58371236145319
P         4.90764633199188    4.30786261033374    2.77322369879264
S         5.10740637000617    2.68230205369581    3.95764767242545
C         1.47003799166014    1.57192784267042    1.81762322623409
C         2.94040401340154    0.37974010029244    3.72548910822067
O         2.96185435033940   -0.57762008341900    4.35049558482843
O         0.52920049428343    1.39377230134834    1.19235409750569
O         1.69715854281301    3.60763510638220    4.80472283017779
C         6.41318705166467    4.53218560183917    1.75431706716132
C         4.81138812734578    5.82458762723068    3.79564937192694
O         4.88240427795572    1.01905426933541    0.73526396712617
C         4.09773484797492    1.29385223622366    1.51160953521325
C         2.12683615221559    2.89454276333640    4.02984658664893
H         6.53788197146034    3.66091921625521    1.11074907836847
H         7.27774982978502    4.62697797799524    2.40951175523025
H         6.30020092389317    5.42447332389881    1.14049467426752
H         3.93205099099077    5.76310009850785    4.43735626279512
H         4.72498500384285    6.69151027225712    3.14243547540309
H         5.70644760272732    5.89858713199277    4.41136716855719

