50
CSD_code = YUDGUZ | q = 0 | S = 0 | Stoichiometry = C22H22ClNiOPS2 | MND = 4
Ni       -0.41225118884162    1.38014554795180    3.15932527599352
Cl        0.61456665374095    1.76625356894583    1.41859685237014
S        -1.46010086737697    0.79212127437926    5.05392608836703
S         0.89108649163052   -0.35319914366654    3.86316039222878
P        -1.65485101593357    3.02447673814402    2.56288636983724
O        -0.42312900326316   -1.39710738517567    5.93479285377930
C        -0.30848426684074   -0.44326544764569    5.03680950963556
C         0.52963991187582   -2.47089570368055    5.96071742498708
C         1.75061053743010   -2.05644862584047    6.77431180619100
C        -0.18475115100690   -3.67098991644758    6.56399857281928
C        -0.60834947410729    4.49332874174923    2.34354656411280
C         0.47400702286860    4.57910800137829    3.21721245494086
C         1.33257712017277    5.65815141019913    3.15823672112444
C         1.11690182689505    6.65434855941193    2.21741814287461
C         0.05135027679293    6.56332756452469    1.33820604287369
C        -0.81576823569781    5.48448901605444    1.39622584804201
C        -2.90110083614539    3.58194881987536    3.77513464977841
C        -2.78611607599951    4.76118534772854    4.49978136229203
C        -3.75577066203487    5.09366982660080    5.43031663950646
C        -4.83233354328021    4.25087679771328    5.64882461080441
C        -4.94361941593945    3.06720540218051    4.93540281498780
C        -3.97980568225109    2.73142920925192    4.00561138311029
C        -2.68259097225949    2.85356379876451    1.07576603692748
C        -3.66924754534348    3.79758929944923    0.80060434923106
C        -4.45719019618853    3.65883732262951   -0.32674534696854
C        -4.27807435110816    2.57527176086738   -1.17306264895176
C        -3.31395759269867    1.62309510822187   -0.88762481819256
C        -2.51763193697660    1.75929418880662    0.23571979522202
H         0.83120422735616   -2.68695347048542    4.92624618740553
H         2.23440554779051   -1.19394184096969    6.32117238549013
H         2.46251101262547   -2.87596066567638    6.80739417126029
H         1.45144237963399   -1.80065596537910    7.78836175185510
H        -1.06207192855342   -3.92199614845442    5.97414911207518
H        -0.50169028336347   -3.44118403937223    7.57742112300258
H         0.48535729823231   -4.52500070525838    6.58307633699602
H         0.63611101685041    3.76755790258510    3.92777541321507
H         2.17318617007197    5.72217621632451    3.83298656934327
H         1.79005883149454    7.49696142618970    2.16254706743648
H        -0.10342314889146    7.33371537844702    0.59715350639635
H        -1.63593407199253    5.40738559538447    0.69818176322423
H        -1.94366874709381    5.41781084153312    4.33415688588305
H        -3.66649507338154    6.01308587683490    5.99046358683973
H        -5.58252879980872    4.51245435182431    6.38030079443210
H        -5.77895115709573    2.40571679801872    5.11096171564505
H        -4.04915946540754    1.80639790469913    3.44772990232971
H        -3.82411226357776    4.62818183605317    1.47595363617062
H        -5.21763229501703    4.39472916425123   -0.54406995502145
H        -4.89779250132906    2.47085528631519   -2.05135254923767
H        -3.18290663368461    0.77260987886637   -1.53975419423220
H        -1.75912594296281    1.02314329589206    0.46974504157352

