60
CSD_code = YUDHOU | q = 0 | S = 0 | Stoichiometry = C26H25CrN2O4PSi | MND = 6
Cr       -0.32234207367664    2.21630727020711    2.82268161635243
P        -2.46571056382494    1.47883867534906    3.28731352542223
Si       -0.60966837472775    5.65798563441113    2.76028862225590
O         0.43841392387905    2.19510497920127    5.73023068763673
O         2.42327942124090    3.07986793389667    2.02901527783806
O         1.15187101605467   -0.38187970461903    2.75949048803259
O        -0.68663784784099    1.93291875540936   -0.14466925618609
N        -1.51587406893335    4.14590321215792    2.74718371573640
N        -3.40428532996754    2.84299913582105    2.83059909694710
C         0.09093341315563    2.29079566742024    4.63432197931721
C         1.33800150087433    2.85050865916911    2.36171728280118
C         0.53337848859227    0.59919051562189    2.79886877698131
C        -0.62415108006324    2.06930446651794    1.00288024915151
C        -2.78013867346621    4.03171965144382    2.58291904359670
C        -3.69687910838350    5.08997196327808    2.10215908897073
C        -4.80739852367209    5.46730470260052    2.85057861926501
C        -5.66653030723313    6.44047711260743    2.37288451581952
C        -5.43972453766622    7.02095976323818    1.13580809041991
C        -4.34866738025511    6.62954195490336    0.37673740683637
C        -3.47575517688687    5.67107447514664    0.85799668816002
C        -3.10437212306958    1.20875721599465    4.97761836574369
C        -3.22552536246874    2.30344384358331    5.82895954838719
C        -3.58489366035570    2.12030355395704    7.15068031155953
C        -3.80350244166309    0.84074153109996    7.63712644664668
C        -3.65330446847294   -0.25462297775509    6.80224417274226
C        -3.29795861070924   -0.07451121174103    5.47767339750187
C        -3.38526299766237    0.19186678662837    2.37618426659296
C        -4.76036290169508    0.02945031316625    2.52829133097105
C        -5.42635217066606   -0.93800691587411    1.79951852304975
C        -4.72538056616676   -1.75157090889447    0.92229457234226
C        -3.35622046801969   -1.60073014955934    0.77634938641623
C        -2.68604702606223   -0.63020633529467    1.50127455267607
C        -1.68563331497310    7.20128876600469    3.11867384985568
C         0.59703588231818    5.50902277895977    4.22687249128060
C         0.27590839478754    5.83319889221683    1.07913274707080
H        -4.98237492145155    5.01601564993029    3.81752603537251
H        -6.51675581339752    6.74411167949536    2.96521740415206
H        -6.11494437848513    7.77606703713008    0.76263706215108
H        -4.17704219145075    7.07419693277900   -0.59201344465201
H        -2.62476573733470    5.35494371079560    0.27461240464449
H        -3.02665144641738    3.29773648067452    5.44644038011008
H        -3.68549187549004    2.97237108247545    7.80720059796089
H        -4.07970150661006    0.69727699046212    8.67110362123215
H        -3.80793540567041   -1.25200895434260    7.18676777894647
H        -3.16877936287880   -0.92644440614272    4.82358694522415
H        -5.30295269608226    0.64942093384955    3.23138228672231
H        -6.49296553276330   -1.06283944942627    1.91768496665276
H        -5.24921631385974   -2.50748468563717    0.35634646993699
H        -2.81071457648780   -2.23941258357191    0.09807571757334
H        -1.61590828564958   -0.50146827812923    1.40166217949312
H        -1.05116676527394    8.01045873067909    3.46561638616079
H        -2.21813850706889    7.55801990879686    2.24408303804912
H        -2.42098995820266    7.01037775947851    3.89419236808828
H         1.34727780676732    4.74671793675161    4.04523567319925
H         1.11443426802864    6.44929965837643    4.38992616514362
H         0.08518817922666    5.25246084302216    5.15032084882755
H         0.45417949252807    4.85843154381141    0.63274476536833
H        -0.29186045177144    6.43151845795476    0.37238903703830
H         1.24089525262411    6.31136934543164    1.20769333207973
H        -4.39706215514225    2.77704366907966    2.63306850231216

