36
CSD_code = YUDRIY | q = 0 | S = 0 | Stoichiometry = C12H15MoN3O3S2 | MND = 6
Mo        4.07651049093597    1.96054793818354    0.98706051715552
S         1.80686231022704    2.47464663590327   -0.10454453134281
S         2.51345566827850    3.13540591170817    2.65158001874980
C         1.31552265864925    2.98308195099129    1.44762770991769
N         0.04129241666353    3.27209582825827    1.70603266669066
C        -0.97764127788847    3.13461387470201    0.68457414186185
C        -1.52634256516525    1.71180006270720    0.63247297241689
C        -0.38080990218155    3.67082845050015    3.03322474668060
C        -0.28044519421756    5.18186252764363    3.21912089633769
N         3.58746026548004    0.35305237499211    1.49062705976348
O         3.29096029683419   -0.72573970953130    1.81818448999024
C         5.00004073483239    1.18234424745884   -0.54660914051862
O         5.50349218411363    0.63664156941681   -1.41642528958137
C         5.67311474791763    1.80738196790640    2.09955463280317
O         6.57150352285900    1.62677859608133    2.78357889563563
N         4.58071500284938    3.95072666130338    0.38639091992273
C         4.39871220338089    4.35507676281234   -0.87147884627459
C         4.54926564534143    5.67095554457844   -1.27388097282489
C         4.90892338430947    6.62405940674535   -0.33387720579642
C         5.11036428548117    6.20731368819686    0.97273470150249
C         4.93790300001055    4.86973323060328    1.28457113883936
H        -0.53594934545286    3.39258020622730   -0.28144580837876
H        -1.77501128198544    3.84671568123378    0.90841452250976
H        -2.29457276716932    1.63946726630291   -0.13188214085809
H        -0.72724862265267    1.01610044366517    0.38868535547510
H        -1.95572988261752    1.42785025114345    1.59070899910990
H         0.25714430802353    3.17008567817030    3.76671556333090
H        -1.41038666099670    3.33578815856859    3.17525138518954
H        -0.62482821669630    5.45501480312066    4.21230100093112
H         0.75356435677269    5.49895647533948    3.10944158604111
H        -0.88714387058313    5.70239579254346    2.48116867837836
H         4.10971320196664    3.58963710914272   -1.58511596466259
H         4.38265007557537    5.93909262290433   -2.30507312300667
H         5.02938271390974    7.66006737284153   -0.61128185296113
H         5.39364639418522    6.90587663250402    1.74398272177362
H         5.08200971899254    4.51726398521389    2.30130955530965

