92
CSD_code = YUDSOG | q = 0 | S = 0 | Stoichiometry = C32H53BClIrN2P2 | MND = 5
Ir        9.79071865539720    1.82933937224718    4.99736104757672
H         9.94435391694480    3.05101093669570    4.09013232822899
Cl        8.46785706819406    0.98268709824674    6.76960941027964
B        11.42349902592461    1.26357904295027    3.97764430737661
N        11.43355422460160    0.27104725654806    2.97175242697691
C        12.73594735971917   -0.15108334715755    2.80644276186862
C        13.55706592938900    0.56967354004462    3.71613024767626
N        12.75319625610380    1.42682809279484    4.43495678629801
C        13.28632655459960   -1.09900059534994    1.96437475622880
H        12.66965411692752   -1.64909624646898    1.26883361069302
C        14.65373585313670   -1.32685605344202    2.03260407047163
H        15.10049086817730   -2.06420866506226    1.38228464114014
C        15.45459864939820   -0.62461239474340    2.91975077227156
H        16.51568371973956   -0.82327321756281    2.94961386624247
C        14.91782316639503    0.33126706380509    3.77080107872022
H        15.55070822994158    0.87597443690371    4.45608281364194
C        10.23384583973273   -0.23575066510228    2.36314495960725
H        10.22663729398507   -1.33175125462602    2.37646822012629
H        10.14385518597017    0.09049929066364    1.31920904768875
P         8.79792404971664    0.45278078957082    3.39071145863785
C         7.67753992968413    1.12329777278411    2.06424702069063
H         7.52365181406938    0.35449584791100    1.29714038108181
C         6.34215641890369    1.51791143819071    2.69471403626831
H         5.85656070989624    0.64812797140580    3.14242092723114
H         6.53823698381091    2.23912038335877    3.49328239509957
C         5.41056011544971    2.13868841980870    1.65718401051372
H         4.47224223215835    2.43093804505259    2.13290636215429
H         5.17777469669517    1.39538226539209    0.88983281324480
C         6.06377748663044    3.35126484501995    1.00298741330734
H         5.39699627389238    3.77157409527172    0.24733441180333
H         6.24202854554300    4.11772987572906    1.75960793619181
C         7.39249566889442    2.95413469698777    0.36873962172212
H         7.86699471790182    3.82758759549438   -0.08207026952265
H         7.21246724943099    2.22411768104640   -0.42474250443743
C         8.31952941322329    2.35164944285391    1.42089641286007
H         9.27768316022885    2.09159818227656    0.96791662676640
H         8.51824340511133    3.08994836093126    2.20039046807108
C         7.93790040587801   -1.09730415111570    3.96766121980882
H         7.10572715691116   -0.73708804903914    4.58636891597155
C         7.38779799868415   -1.99171254801534    2.85704648553665
H         8.20141298319615   -2.32617476339467    2.20859442669460
H         6.66957655501954   -1.44640306875954    2.24265947787416
C         6.69246493913301   -3.21378623261426    3.45701911738070
H         5.83545342567447   -2.88538852769876    4.05000328356616
H         6.31763752377650   -3.85180743531374    2.65312264654150
C         7.64723815600740   -3.99991624770542    4.34865885038468
H         7.13266919580424   -4.86452531768192    4.77290613342897
H         8.48441215151804   -4.36931104479965    3.75077674330713
C         8.17415133400259   -3.10435617953383    5.46435885273051
H         8.86819715620406   -3.66107351182074    6.09775772741476
H         7.34191132834838   -2.77531392232802    6.09038866356835
C         8.87864582958347   -1.88253939704059    4.88352225072429
H         9.19760928702832   -1.23350043502335    5.69973051633682
H         9.76855283596296   -2.20565555604942    4.33643357152970
C        13.07912611133554    2.28415114190845    5.54275460442831
H        13.42042377480044    3.26676278757583    5.19422825388552
H        13.86447518872387    1.85084706706639    6.17067998700459
P        11.45558955231172    2.46234153692578    6.49148165411235
C        11.59565023532195    4.13106373582719    7.29605094172742
H        12.57104514672261    4.22732840483244    7.78886378738052
C        11.45411087246287    5.20861231768967    6.22079439392802
H        12.26442950783842    5.13070304631693    5.49353896313922
H        10.51584392898571    5.04204081979614    5.68503950927187
C        11.45130886482803    6.60248602180684    6.84254564279377
H        11.34195894693315    7.35383758840065    6.05825629252576
H        12.40520827384649    6.78034396694904    7.34585731986627
C        10.31513348081851    6.73169078959968    7.85138950308199
H         9.36047376200422    6.60411057770713    7.33728558782604
H        10.32479260636588    7.72599286811554    8.30265433785576
C        10.45163637011974    5.66613005630118    8.93338352913107
H        11.38272561737105    5.82608007934678    9.48398982664892
H         9.62629488756490    5.74631432339296    9.64369615236617
C        10.46362495208926    4.27143386932309    8.31484298329332
H         9.51435615635234    4.08846272640359    7.80375935668433
H        10.56263649937711    3.52401267964461    9.10479359517034
C        11.68890198673117    1.23639329617232    7.86825606548252
H        10.72518024592493    1.22886200437392    8.39298188591492
C        12.80237685132651    1.54092118034415    8.86827441264107
H        12.65427342146930    2.51755680291212    9.33241561735715
H        13.77068744421885    1.55240100301033    8.36168912777730
C        12.82377329394939    0.46916216472468    9.95865922453187
H        13.62899284201768    0.68141239440917   10.66604647474052
H        11.88005949030089    0.49772775902517   10.50840112843694
C        13.01145002489707   -0.91971541218197    9.35595496985503
H        13.00697583398178   -1.67081598251431   10.14851367299367
H        13.98078328372402   -0.97038307908227    8.85341814840001
C        11.90452157319712   -1.21455868219723    8.34844680011054
H        12.05551253341416   -2.20070285192970    7.90369403068149
H        10.93832415976760   -1.22046143908090    8.85762303780776
C        11.89238794470837   -0.15064698332753    7.25618425814841
H        11.08612885413826   -0.35420418119135    6.54737055830392
H        12.83545243182329   -0.19115941090421    6.70537880698656

