59
CSD_code = YUDVUO | q = 0 | S = 0 | Stoichiometry = C25H28AuO2PS2 | MND = 2
Au        2.24499774580332    1.59496122806108    6.50221299604903
S         0.16581764312543    0.75621577523729    5.71263989966686
S         2.23847515547399    0.98144690984485    3.60935969037103
P         4.23499509328050    2.37867703671745    7.29219648521180
O        -0.21504300629029    0.09932727950457    3.29409909271562
O        -1.94823489686009    0.36665147547376    0.84737268470575
C         0.70349430539604    0.58855967635404    4.10762283056630
C         0.12533854048200   -0.08957212740157    1.93192754876394
C        -1.07971662863701   -0.67636837338236    1.21280747784996
C        -3.14175403904449   -0.09074516282052    0.26812648082722
C         5.65820648702216    2.05733566863419    6.20793031139756
C         5.84213805078292    0.77628276655658    5.67024582289882
C         4.92541407879132   -0.35280883714541    6.00862985552594
C         6.90226237040421    0.57267774245773    4.79680008029264
C         7.76442391027762    1.59989164909052    4.45811565847229
C         7.58194205899227    2.86118499999598    4.99892753001833
C         6.53106931656957    3.08877629736806    5.86660588485387
C         4.28914015678837    4.17691877749810    7.54763645340613
C         3.81838538366288    5.02581206034818    6.53574351609264
C         3.31483242348483    4.48576094266407    5.23771739556978
C         3.82841605447283    6.39537411886935    6.76641113912625
C         4.28855641360747    6.92165556820385    7.96054287571455
C         4.75682655951575    6.07761086676155    8.95311888372302
C         4.75431158061334    4.71102469702781    8.74744694573334
C         4.73473722355615    1.69290510300021    8.89940829586729
C         3.81140410716730    1.66256086579979    9.95458494733626
C         2.44181011812041    2.24061310697448    9.80443788841490
C         4.19758083988111    1.08075081544151   11.15457934565239
C         5.46047327734646    0.53938284578676   11.31899786696300
C         6.36844444998755    0.57510183119448   10.27465369716099
C         6.00464884270614    1.14580274916336    9.06967061941219
H         0.39476759346501    0.87245187532334    1.48154634390967
H         0.98845172218400   -0.76320494045288    1.86537139656456
H        -1.58761335977975   -1.38517808280629    1.88371756599332
H        -0.74220098687518   -1.22131933336416    0.31662908221313
H        -3.70241212029202   -0.72985848108219    0.96151387522284
H        -3.73071992521536    0.79283215078479    0.03208526563229
H        -2.94562490136920   -0.65744759342751   -0.65159433712207
H         4.61046231919441   -0.30982751604582    7.05181684971472
H         4.03538635168838   -0.29664222063251    5.37837658570886
H         5.40721960117016   -1.31064142041899    5.82547700194269
H         7.04875867629240   -0.41041261860115    4.37318852247553
H         8.57895275832132    1.41595270136651    3.77352157607693
H         8.25305711129229    3.66781105543571    4.74431244651797
H         6.38723967015400    4.07474143275459    6.28603148625724
H         2.29531430228086    4.11052394002334    5.35607808732400
H         3.30120285224707    5.26055627066548    4.47458643237362
H         3.92971295449008    3.65774455883591    4.88356011313908
H         3.46939984661720    7.05925050131745    5.99310828934924
H         4.28600417774278    7.99036768711562    8.11455843093574
H         5.12440973729298    6.48059414136403    9.88487628632734
H         5.12136613983961    4.05098628519170    9.52108233468504
H         1.95798277276103    2.34549599234334   10.77254855338589
H         2.48083129937302    3.21807576267394    9.32283102266792
H         1.82424499851127    1.58984668531458    9.17983457164942
H         3.49344956825642    1.05219972533184   11.97377748352809
H         5.73554166893601    0.09154748397631   12.26215741958758
H         7.35755690327103    0.15976217891819   10.39614875724931
H         6.71256465156207    1.17432342519016    8.25308835613298

