60
CSD_code = YUDWIE | q = 0 | S = 0 | Stoichiometry = C28H26Cl2OP2Pt | MND = 4
Pt        0.76606107859278    3.66302020740815   13.00755510687718
Cl        0.74308808481171    4.54332719932660   10.90000529630253
Cl        0.04227427512012    5.62973510219481   13.90252218497262
P         1.30386952472733    1.66299154984350   12.11200717467939
P         0.69278675148136    2.54499679755953   14.99953869153397
C         0.92230264653568    1.17845630647189   10.42135041751178
C        -0.41820764059622    1.11681709906243   10.05285083231426
H        -1.18061448090793    1.32859184498013   10.79124745723111
C        -0.75887937158724    0.80366116179302    8.75122091164451
H        -1.79788633691501    0.75371378123272    8.46109597774073
C         0.23508053828304    0.56740901376552    7.81418784758777
H        -0.03205788658380    0.33074456466115    6.79501241947507
C         1.56972659324800    0.65041945312706    8.17564181865886
H         2.34022371625303    0.48171846064625    7.43778117707522
C         1.91861277302651    0.96115474935804    9.47752368391365
H         2.95735865524345    1.04773515740556    9.76219963317660
C         2.81775064592443    0.69131250183317   12.60476286254829
H         3.77892295272339    0.95800021637107   12.16872822425019
C         2.36601454449680   -0.72813606425224   12.35644702950704
C         3.34725057262064   -1.73556595149160   11.87069239504870
H         2.89048266373065   -2.71459242091126   11.76051821643486
H         4.17444826350200   -1.80997840670241   12.57683800035703
H         3.75455845828731   -1.42911660040128   10.90765350132784
C         0.25753201070944   -2.12050531962637   12.74508394418653
H         0.78900859853221   -2.96524538505699   12.31751524767562
H        -0.65741326586815   -1.95832030418425   12.17564148509292
H        -0.02361883213328   -2.36675634755136   13.76937369243597
C         1.09134410652301   -0.88703103882365   12.72723522103480
C         0.52068828167228    0.41038272742218   13.23541280809848
H        -0.56379344006807    0.42474348416883   13.35562887316976
C         1.27329561865660    0.82315942266436   14.53646151847715
C         1.30923937261861   -0.26147840295185   15.56216742400321
H         0.44290681884035   -0.63420148844402   16.07170437541523
C         2.55244339828846   -0.72932921494149   15.63378111811219
H         2.95485617571970   -1.52976393311727   16.22856563893284
C         2.76767284994461    0.92369172521779   14.13059301523514
H         3.21376348768058    1.89812462429967   14.38276521101243
C        -1.01261358894355    2.28305761498368   15.55754860132190
C        -2.01342304798546    2.53784697193030   14.62231287079362
H        -1.73261788518287    2.91860701889349   13.64034227086660
C        -3.34053570130432    2.34418545166845   14.95518937855171
H        -4.11530894547375    2.54875120928599   14.23156000481505
C        -3.67423509800582    1.90038165002507   16.22532323109384
H        -4.71075092882884    1.75303159939855   16.48985991105557
C        -2.68207711899537    1.66112845354027   17.16272256972868
H        -2.94717443815501    1.32977719272569   18.15607550987833
C        -1.35133477168155    1.85295622491255   16.83572987606619
H        -0.58061013951318    1.68578461425530   17.57380634885052
C         1.64466868993650    3.04228370671377   16.46079709104811
C         2.02102055464814    4.38325208121810   16.50946979649222
H         1.73654658234765    5.04012646837919   15.69716694485641
C         2.73769763163356    4.86320298324095   17.59049448448636
H         3.02491939194922    5.90320853154659   17.62444763656019
C         3.08786439667521    4.00971404957926   18.62379603984950
H         3.65053914957783    4.38171298808154   19.46720349582207
C         2.71908843615276    2.67480710598342   18.57553872388906
H         2.99482720529464    2.00805467319076   19.37966858864055
C         1.99788173281769    2.18617226136519   17.50107106862628
H         1.72776689377859    1.14105617291091   17.46576154556395
O         3.46186879612465   -0.07818529618896   14.86550357809104

