61
CSD_code = YUDWID | q = 0 | S = 0 | Stoichiometry = C24H18F12N2NiO4 | MND = 6
Ni        3.19287253839992    5.30300214896362    4.98115486429222
O         3.77897687548986    5.38211612231637    3.27491116733929
O         1.74188907511838    3.80151237548267    4.43977553588159
N         1.84463008563729    7.13168961709641    4.53375030132350
C         3.40528377279139    4.71897150825031    2.28007743875921
C         2.43002304132573    3.73870979635879    2.16895200866728
C         1.66377928169312    3.37012838919726    3.28430192081112
C         2.67227837048247    8.32659636440370    4.41820590400182
C         0.97724619209734    6.74994423962845    3.48285878738447
C         1.25252860361831    6.99603333227924    2.14049575629870
C         0.41059602952218    6.50501277283706    1.15680552125856
C        -0.71341988410627    5.77187235122793    1.49147037423545
C        -1.00323288109789    5.53986542083434    2.82707156501677
C        -0.17085619781090    6.02832656185388    3.81397811433984
C         4.14074349179675    5.07331865015305    0.97000036547976
F         4.88030405649461    6.17787832120879    1.11541144733234
F         4.95716929245406    4.09628570792676    0.56698611176449
F         3.28890955820945    5.30871836221524   -0.03686548762989
C         0.58702141930707    2.29389738377372    3.00621038799816
F        -0.30290073935122    2.20789006368175    3.99250548665097
F        -0.09779117135906    2.55147992831320    1.88025713112078
F         1.13425294056665    1.08028538920442    2.84954980783284
H         1.33558823457522    7.13522992248970    5.41828588208393
H         2.24503877523302    3.27734862024843    1.21442583717334
H         3.18921188721368    8.31249630524655    3.45701620671418
H         2.06530930769498    9.23985585299571    4.47784507732244
H         2.12705365618483    7.55500426615186    1.84628295860541
H         0.64679666070882    6.69232101917012    0.12076683494464
H        -1.35749357352295    5.38064847038831    0.72054818949360
H        -1.87947979373801    4.97269630105274    3.10102501024180
H        -0.38669098386208    5.82643792534099    4.85359950936070
O         2.60704166269556    5.38223207575548    6.68753050001479
O         4.64286384450652    3.80123963070741    5.52172062585415
N         4.54065207217686    7.13252631544689    5.42823289963187
C         3.71259995325440    8.32722202823383    5.54286585586240
C         2.98044470458805    4.71849289547157    7.68206261055904
C         4.72079477598770    3.36899507100032    6.67686559533676
C         5.40759486267955    6.75123779370059    6.47963602691633
H         5.05003150405867    7.13579220438305    4.54389894936819
H         3.19566716205729    8.31368285214894    6.50405893683032
H         4.31920140886650    9.24068349081033    5.48251182546015
C         3.95536321375065    3.73781598098769    7.79268015136524
C         2.24443904313475    5.07160552617398    8.99235726204463
C         5.79591830076193    2.29092934523115    6.95405251142297
C         5.13215208847148    6.99848547718739    7.82175273318175
C         6.55551068080954    6.02893920454751    6.14930421203379
H         4.14032065870819    3.27594619792557    8.74696968327754
F         1.50335552750943    6.17518516292380    8.84698766500394
F         1.42941273908019    4.09305329895519    9.39477807905968
F         3.09619344302915    5.30778688372613    9.99920204419273
F         6.68286255794794    2.20074407884557    5.96550018683998
F         6.48439515924164    2.54937033415995    8.07758389857527
F         5.24631234690829    1.07892580030404    7.11485909587869
C         5.97388964822818    6.50821539635464    8.80598322140367
H         4.25768397750551    7.55785021067907    8.11538240050081
C         7.38764230198449    5.54116523811974    7.13675440395688
H         6.77142023281697    5.82611409299766    5.10987356415079
C         7.09781080629282    5.77457283339874    8.47210603741105
H         5.73765722251681    6.69659274403484    9.84182402467460
H         8.26378966115471    4.97352280794724    6.86345889136906
H         7.74184051751581    5.38410153755586    9.24344609172589

