88
CSD_code = YUDWIF | q = 0 | S = 0 | Stoichiometry = C39H33CoN12S3 | MND = 6
Co       12.92273032978935    3.26506088463008    0.87199646898582
S        11.23303095259763    1.77520152792435    1.41759538185962
S        13.45512620915576    2.09508215487051   -1.02284853985397
S        14.44552249239049    1.96905736830914    2.02222245838671
N         8.71508708532220    2.73579621777538    1.11845182811253
N         8.34633198957978    1.68644375986489    1.80877415593789
H         9.07046744828604    1.02457179740262    2.10977598614472
N        10.32242987653686    3.95713375481393    0.15058802301523
N        11.54654971908430    4.23112463756536   -0.07382564975933
N        15.79943178485472    2.78732512900796   -2.21138910829979
N        15.60773966298338    1.73147281803164   -2.96196955047776
H        14.78285161505193    1.14976989349675   -2.77996301549582
N        15.14542483303265    4.12884588452094   -0.53322866897552
N        14.36828492463114    4.38731610391389    0.43712793041903
N        14.27323970525401    2.01589153007685    4.73259744676521
N        15.17520743120533    1.06686082997924    4.70687539448295
H        15.50895792427775    0.73584364611867    3.79542106220312
N        12.91643709524701    3.44418893939924    3.66441284556847
N        12.47930811732609    3.98383680115407    2.59757342534951
C         9.98731093156804    2.89587162518449    0.87438156229453
C         7.04041420567715    1.44630923206147    2.15797799070299
C         6.72893410794291    0.30218559199802    2.89616011226234
H         7.51705285659390   -0.37928944510195    3.18214932929340
C         5.41897040338020    0.05085175195027    3.25087339194260
H         5.18035124157139   -0.83502272208203    3.82024063669883
C         4.41163516018150    0.92846509261517    2.87905828123565
H         3.38911641564841    0.72618694352369    3.15886710475142
C         4.72147244990592    2.06546402039991    2.14676525578541
H         3.93737145505421    2.74891605376217    1.85686742625064
C         6.02561660986502    2.33113147782343    1.78438203941883
H         6.29060136227129    3.20710067260354    1.21468980406929
C        11.68133719727524    5.34863356128810   -0.92146205397235
C        10.82588885541757    6.43915445317687   -0.74791325102121
H        10.08162654046204    6.39385746893141    0.03137241689458
C        10.94315537809982    7.54882590989375   -1.55909877434062
H        10.28708183215556    8.39250499379490   -1.40476729966072
C        11.88790456883258    7.57922845117323   -2.57321780600330
H        11.97862832265789    8.44911470956788   -3.20611554605125
C        12.69787679559513    6.47690209147636   -2.78558247144462
H        13.41165460155465    6.47314977154761   -3.59593586372769
C        12.59833105714887    5.36523436013930   -1.96857381360311
H        13.20249430085283    4.49814380815637   -2.17740092685728
C        14.92259353776727    3.05184332267547   -1.28425915580928
C        16.47512400828912    1.35659842567515   -3.95851444602036
C        17.61860121900754    2.11007004804472   -4.23530973696525
H        17.80961677444233    2.99270952285978   -3.64662804533624
C        18.47152148917116    1.71028909210312   -5.24310622023995
H        19.35585349991614    2.29231273730938   -5.45574610660379
C        18.20144898395553    0.56809744611849   -5.98278116795951
H        18.87309022090945    0.26063940674984   -6.76967366795525
C        17.06599799159673   -0.17939623661369   -5.70862095309865
H        16.85363744841151   -1.06913824140583   -6.28243230324784
C        16.20273188294399    0.20692966011110   -4.70347492361761
H        15.31723282097135   -0.37247216937031   -4.48548303292408
C        14.66898889424454    5.59887719846145    1.09581268257792
C        14.65063855985237    6.78628109096367    0.36550459753957
H        14.43066324586069    6.75122907112722   -0.69022261976191
C        14.88782760151750    7.98953175924543    1.00178132155847
H        14.85460043244732    8.90621435910452    0.43219260530667
C        15.16952738072870    8.01993703476883    2.35789980237934
H        15.34980927861516    8.96205614594585    2.85299010998518
C        15.23801636240715    6.83566544644397    3.07273392381742
H        15.48807979189873    6.84784188191449    4.12266963602884
C        14.99385248800990    5.62670670318887    2.44899636095009
H        15.08454595117748    4.70682388293873    3.00455093555816
C        13.84869771566743    2.49935197122377    3.59849603030774
C        15.68091989571618    0.49100791243678    5.84656059767096
C        16.64036993151374   -0.51789451957930    5.73532216283320
H        16.97172967327506   -0.83360849462002    4.75660850010587
C        17.15594010251988   -1.10228941503263    6.87444316952450
H        17.89754989457067   -1.88211655751848    6.78579160197536
C        16.72646862039571   -0.69322693565635    8.12798545369737
H        17.13327188272639   -1.15417135484968    9.01503362494421
C        15.77325037100018    0.30870731751531    8.23828411492724
H        15.43782502869882    0.62729087859159    9.21400703392727
C        15.24843659203130    0.90317097846316    7.10962039310947
H        14.50641680813171    1.68269195553758    7.17157383142032
C        11.42368549539110    4.88301650457199    2.84637158743743
C        10.34564600912385    4.46172747249639    3.62412303977410
H        10.34847381234166    3.45508370927226    4.01520378331242
C         9.28936881163341    5.31801763719262    3.85940149678164
H         8.44538931509142    4.97816850527239    4.44046842719486
C         9.31543187471856    6.60807876934201    3.35447040855051
H         8.49078462513866    7.27893064409955    3.54221771545413
C        10.40333649831981    7.03751403215004    2.61263937892951
H        10.43757012499591    8.04802963867865    2.23305235701731
C        11.45408741241477    6.17938763910433    2.34433593477816
H        12.30136379408611    6.51474057024054    1.76630434086692

