75
CSD_code = YUDWUQ | q = 0 | S = 0 | Stoichiometry = C35H32I2O3P2Pt | MND = 4
Pt        2.00396896481827   -0.21599723389878   16.12584874075832
C        -1.64143648479413   -0.50586735233968   16.14496325765297
C        -2.31659499642481   -0.81870206387341   17.31874122559558
H        -1.94402267478993   -0.45912581072953   18.26718063569616
C        -3.44927077051364   -1.60865333375254   17.25978040979635
H        -3.97751235301680   -1.85730697239484   18.16775104745434
C        -3.89849651921845   -2.09120878721670   16.04078199339582
H        -4.78049947966707   -2.71254094567998   16.00131142616992
C        -3.21343471932572   -1.79361417531766   14.87344961969171
H        -3.55898439467046   -2.18336782299779   13.92742346475777
C        -2.07897043406439   -1.00570186620371   14.92265307984817
H        -1.52127218968851   -0.77891611290884   14.02185209041243
C        -0.38546549396522    1.83565262075206   17.39257324656803
H        -0.34903114223663    1.59127096101262   18.45351980508153
C        -1.67475292403204    2.45912593047024   16.91042864388184
C        -2.64467820990399    2.99657329237558   17.89993121207969
H        -3.52695133312504    3.40296904233906   17.41419115207809
H        -2.16532258963251    3.78471152463536   18.48058182418026
H        -2.95404311511749    2.21072890420001   18.58860028884423
C        -1.69316000083482    2.51172886192979   15.57459589705522
C        -2.73952239835804    3.06219995769529   14.66721725037024
H        -3.10178673547673    2.27721628954008   14.00208273299444
H        -2.33512632059293    3.86190881032684   14.04621956213264
H        -3.58068026241112    3.45488874558602   15.23043590365092
C        -0.44311212828864    1.90282137968864   14.99434084328557
H        -0.49317297561970    1.70001285539865   13.92250422468947
C         0.80537792864371    2.72127818976371   15.39801919580077
C         0.75097921275496    2.77664192180338   16.94960066825488
H         1.71210752047305    2.48346239033844   17.40842096393806
C         0.83605860093326    4.18621505999972   14.97115018859209
H         1.69486275840650    4.43419030544680   14.34681441308938
H        -0.07660072058989    4.47512684145396   14.45209472201423
C         0.94172413659241    4.94683664725583   16.30329430439100
H         0.36612983907343    5.88058711917449   16.30834137475070
C         2.85880529783158    6.26928313356795   15.92756780157703
C         4.19313901459346    6.63816678456964   16.43879222912452
C         4.63734226607826    6.21668120701470   17.68936481847998
H         3.99491727719688    5.60328367953479   18.30113021265393
C         5.88829248971927    6.59837168902592   18.13636773739162
H         6.23366069177769    6.27761294879616   19.10783455946853
C         6.69982982312590    7.39289829460029   17.34160940467228
H         7.67766807038129    7.68546305223018   17.69460995183124
C         6.25814068751368    7.81760293837655   16.09792656106818
H         6.89068673036575    8.44023277023016   15.48318824003332
C         5.00624188735587    7.44638513625984   15.64731390004915
H         4.63738103406657    7.76866478447614   14.68548576217663
C         1.98739310028148    1.29366557335316   13.16245461326341
C         2.10795520579713   -0.04817608566369   12.80643016950247
H         2.37537266314868   -0.78387203046481   13.56455170242383
C         1.88557380789581   -0.45210175633086   11.50294956038945
H         1.98509276099580   -1.49373740207264   11.23814389835370
C         1.53307108404083    0.48313937586562   10.54432701626676
H         1.35962552127583    0.17392472289444    9.52462989818205
C         1.39183641949088    1.81705146532165   10.89462032986341
H         1.10369310599029    2.54405027248855   10.14944534421048
C         1.61415807086174    2.22710368638590   12.19666186469731
H         1.47838393899841    3.26664166280751   12.45807787842972
C         3.73481817754696    2.73674076649523   15.01818641200079
C         4.25210022697580    3.41620007334766   13.91995686572737
H         3.77570584432557    3.33932575930290   12.95309664962144
C         5.40303692083689    4.17026447810222   14.06222562485764
H         5.80208308480743    4.69851972192701   13.20918029870904
C         6.05278594944282    4.23057511720892   15.28311011358693
H         6.96098807914728    4.80532257861167   15.38234437444696
C         5.54740510893241    3.54340669687097   16.37476867186978
H         6.06550563242382    3.57155400460455   17.32064039287327
C         4.39009160075981    2.80218167531811   16.24600208856725
H         4.01100321565983    2.24207157206480   17.09152180187604
I         1.18815432937042   -2.19359976146434   17.60964118522608
I         4.52632825867734   -0.83988974870542   16.03894563412066
O         0.45783337203037    4.11974316359944   17.29481257151702
O         2.29965474681741    5.26129690398936   16.62063779469523
O         2.31015733369241    6.79761509187610   14.98991598889741
P        -0.13720299063696    0.48046951763494   16.15556860331484
P         2.27468256493572    1.67342131207467   14.91396606503878

