72
CSD_code = YUDXUR | q = 0 | S = 0 | Stoichiometry = C26H40IrN3P2 | MND = 4
Ir        2.02868584371908    9.29168504049345    4.77445241418538
P         3.97077074891621   10.53102084731049    4.78880744864039
P         0.40924293306583    7.77387260582221    4.15525180638820
N         2.90245810820089    8.55507993215568    3.07818582150448
N         1.28105252685616    9.92296487899838    6.22192021580955
N         0.79629168651224   10.33335406223673    7.15974627376365
C         4.44320828361497   10.39010840382761    3.04799737454082
C         3.77800569543625    9.34017380731544    2.37414916342376
C         3.99263372370572    9.23772968368851    0.98921909326654
H         3.43971943815071    8.50471003182721    0.41913830077104
C         4.85966859624670   10.08685379271816    0.34055623524614
H         4.99644059541336    9.98504833740080   -0.72750568086110
C         5.55298814233043   11.08680280508926    1.01986602930181
C         5.31438108997810   11.23436920114700    2.37680252975146
H         5.80890129866208   12.03246798000305    2.91373609791689
C         6.50729687839064   11.98460399761333    0.28984658372475
H         7.38001096259515   11.42179191733466   -0.04383442782035
H         6.84696474466423   12.79482329935890    0.93120892940544
H         6.03281041189658   12.41391314704514   -0.59192608051691
C         1.38641130761980    6.69901662177388    3.07648936096147
C         2.60638873265043    7.28296046117301    2.66348563605706
C         3.48266232651326    6.46866755353893    1.92641933667217
H         4.46055952075409    6.84478187309137    1.66133095157559
C         3.13367766815585    5.18415796544296    1.57630733669331
H         3.83512607509522    4.58288995227536    1.01394374296009
C         1.90747784128689    4.63249200922350    1.94068072041941
C         1.05236477015952    5.40413048322544    2.71175320338441
H         0.11500968075278    4.97741496094990    3.04201909689581
C         1.55359827580052    3.22674774217762    1.55491208540104
H         2.06933308061632    2.51418612090816    2.20070826847272
H         1.85279122546845    3.02222733255474    0.52833899942177
H         0.48326537431993    3.05561165840321    1.64814844764824
C         3.99131601295726   12.35534747981606    5.14121670557316
H         4.94365915117650   12.78641750148852    4.81395706662967
C         3.80147024015544   12.60791766184199    6.63331764768422
H         3.69096527908650   13.67464353392084    6.82232607126132
H         4.65273294303720   12.24896889620339    7.20784525465560
H         2.90492971216263   12.10380559144058    6.99060624515749
C         2.85150434717492   12.97046907461751    4.33389446076063
H         2.79180506471636   14.04407737282398    4.50382224837069
H         1.90418865128777   12.51904977502464    4.63214393160716
H         2.99635799089839   12.79465669445779    3.26874065533279
C         5.41934229986313    9.82932796313169    5.73390306305246
H         5.19148427198505    9.98156833816962    6.79618991502705
C         5.44725911898881    8.32885006757946    5.45279495243283
H         6.21019335968352    7.83623251167221    6.05346819435759
H         5.66486276400298    8.14444759998498    4.40156539670961
H         4.47928305384300    7.88194357329604    5.68511698630554
C         6.75624341499722   10.47800246234586    5.39800670201863
H         7.55166592639374   10.00143554115658    5.96995265388851
H         6.75744707269867   11.53868507293808    5.64024365741449
H         6.98130070035792   10.35847158782913    4.33978590485320
C        -0.98417383295264    8.39528399897605    3.08038260588122
H        -1.63488681011737    8.98449787712253    3.73842277568034
C        -1.79539595555334    7.29397640531777    2.40967818184180
H        -2.57433084867694    7.73544176903803    1.78897008066131
H        -2.27522650779996    6.64876058461457    3.14261704261665
H        -1.15649500889621    6.68699078901380    1.77091579815580
C        -0.36200435156770    9.33096283180066    2.04667388809491
H        -1.13224248721525    9.81259970586920    1.44643186966060
H         0.29613253264046    8.77479631231919    1.38030347892724
H         0.22720905740329   10.10420121982337    2.54220087112274
C        -0.38676072258471    6.62039998997147    5.37542556704963
H        -0.88457937187218    5.80260570354011    4.84323207942995
C        -1.40458618382984    7.37078973999937    6.22807048306717
H        -1.77770049741008    6.72540502692430    7.02183303617766
H        -2.25360057119350    7.70105538254279    5.63339759538024
H        -0.94270991589726    8.24345128961122    6.68713795875230
C         0.73693799451013    6.05352388670493    6.23870319935731
H         0.34215318635209    5.37229394995847    6.99043952522188
H         1.25658992956434    6.86721178749403    6.74669774693696
H         1.45776140219013    5.51437494350241    5.62531318784484

