87
CSD_code = YUFNIY | q = 0 | S = 0 | Stoichiometry = C32H48HfN2O4 | MND = 6
Hf        1.64004366554766    2.78426716008069   11.33144623961415
O         1.17621351719852    3.90318070204766   12.81407468003545
O         0.30673597743070    3.04193476466097    9.99482879118882
O         0.78811179140056    1.27307668131869   12.20145259895746
O         2.97413033134509    3.88596211469931   10.42456202169160
N         3.56946201738491    1.87221316111676   12.40446671714025
N         2.50509928672185    1.02892327499976    9.94601403063270
C         0.77023961145749    5.86661897294504   11.45267707466091
H         1.27218744399255    5.33607200918659   10.63958437795870
H         0.98331793856437    6.93280885683506   11.39161134408513
H        -0.30198488158486    5.71814848043137   11.35363989335298
C         1.26070167249186    5.29126296437536   12.79017255318705
H         0.61562256831314    5.68342244351560   13.60176517052185
C        -0.97333814377432    2.53370396799091   10.19285535111113
H        -0.90788523674048    1.44032720538527   10.36888276695130
C        -1.65504723347937    3.17013384625086   11.41432207317642
H        -0.94324182375207    3.17328434651783   12.24381330899075
H        -2.54463653461491    2.60792568167005   11.69285183822504
H        -1.94978292906483    4.19273088172468   11.18602914098647
C        -1.82208060618809    2.76358653630000    8.93185248801865
H        -1.87356161385648    3.82888075931631    8.72090949073993
H        -2.82742028578006    2.37526632153367    9.07400677836073
H        -1.36648343675717    2.26775799613984    8.07769328606005
C         0.95918082361216    0.63070891785020   13.34057547883408
C         2.09667946372990    0.81326299961633   14.14952766498864
C         2.26152691146952    0.05489808224696   15.30196634649087
H         3.14496147507124    0.21264833801333   15.90780651080593
C         1.32849020612492   -0.88518520323566   15.70153946830196
C         0.19977414144810   -1.05636149014700   14.90778661026917
H        -0.54596691738649   -1.78206012031148   15.20335600562930
C         0.00392395558227   -0.33092269652472   13.75048608929913
C        -1.21606112199403   -0.54572299175025   12.90311197612080
H        -0.98649727100342   -1.19712588549103   12.05751993107487
H        -1.55565669926619    0.40722652171382   12.50446562834180
H        -2.01351435471689   -1.00450104639344   13.48321590719977
C         1.50940770113744   -1.68905295554975   16.95556905662562
H         1.35866491495789   -2.74958059059896   16.75848014936450
H         0.78283309212006   -1.38449270354273   17.70904598884165
H         2.50644078150996   -1.54866437211385   17.36620991477019
C         3.12040837668149    1.86306212624422   13.81737862969537
H         2.67705096495849    2.85022359770379   14.00561479867294
H         3.97915899799835    1.72419740862692   14.48758958484061
C         4.84605804659497    2.59396909553300   12.31784037268853
H         4.83317262014364    3.46580953337576   12.97184463167170
H         5.00141749983652    2.93647963786446   11.29392265964110
C         5.94757703988814    1.58760044213463   12.69631710242320
H         6.22319165102235    1.68134627875279   13.74639029261913
H         6.84505633609340    1.75740773327554   12.10434440388137
C         5.32149098524602    0.21585122747712   12.41221454849378
H         5.88586538263703   -0.33656086659703   11.66308424973847
H         5.28124602521321   -0.39074131077787   13.31639735661889
C         3.89210555487354    0.52381002280388   11.91636366936827
H         3.17052559391645   -0.18811159510416   12.32796022084612
C         3.80196388041917    0.48791508239688   10.37898685107985
H         4.60042373917908    1.11100587828860    9.96407396571817
C         3.89679669995968   -0.96057246105213    9.84058052668895
H         4.65246927963813   -1.03599052517134    9.05982185717572
H         4.17166866156795   -1.64746901083795   10.64027838419006
C         2.49975365151949   -1.28274214992132    9.29910972649813
H         2.14179203545387   -2.25418048476545    9.63415547761392
H         2.49544590909453   -1.28602588805802    8.20891631066871
C         1.62928363689140   -0.14620434353531    9.84975546870310
H         0.76770618057497    0.07429225674898    9.21946623118270
H         1.27034216044190   -0.40233340911894   10.84757220675408
C         2.58364798448838    1.68264372461694    8.62081236568377
H         1.62775088260524    2.20549646620650    8.48325223304223
H         2.70049865802328    0.93207581335253    7.82780759771254
C         3.69955275143664    2.67833974209836    8.49408032182257
C         4.61217830065539    2.55150428541558    7.45476457511712
H         4.52790611530512    1.70298732241945    6.78762147306755
C         5.61249860792441    3.48319533713798    7.24165524411824
C         5.66828005993430    4.57728970251019    8.09713316891704
H         6.42699979576720    5.33112168088323    7.93540123930506
C         4.78505799560071    4.73630133833719    9.14649267449607
C         3.78168347789111    3.76511092776955    9.38578208423461
C         4.87189169482075    5.94303905307230   10.03440996801752
H         5.46740022598686    6.72169403465420    9.56369899768566
H         5.33304948399648    5.68867068998813   10.98990873405521
H         3.87396498081459    6.32612940524789   10.23484400425740
C         6.58965036741066    3.34491350032341    6.11166064782548
H         7.61058078466913    3.47941568988232    6.46633193177672
H         6.39945219897438    4.10279833400867    5.35150720064976
H         6.50794218294136    2.36591808175903    5.64551238236002
C         2.70606322573051    5.73795097854748   13.06530873543576
H         3.01806485507314    5.40255391418347   14.05339392745263
H         2.79473977519231    6.82114116172786   13.02264633145782
H         3.34528448626044    5.28620660673626   12.31001989142398

