46
CSD_code = YUFSUP | q = 1 | S = 0 | Stoichiometry = C12H24ClCoN5O3(1+) | MND = 6
C        13.86242735721018    2.02173017933466    1.30067852124746
H        13.29455285998637    1.11605528131201    1.10216697983996
H        14.47737109775156    1.85823875525885    2.18457660207480
H        14.52187084441895    2.23643791615086    0.46251870485310
C        12.93284819797707    3.15867044384495    1.50833744610243
C        13.43469693424939    4.58605338411892    1.36829588946709
C        14.81874247417467    4.77246792245244    1.99128245687948
H        15.53125685770771    4.20706799437430    1.39884794686916
H        14.85954509010069    4.42493562519200    3.01848890410225
H        15.11154131325120    5.81711119173731    1.92973655542253
C        12.56277272240939    5.99989478451746    3.33721526554868
H        13.60692319054104    6.22645630314183    3.56369530824319
H        11.99756675520985    6.92797191961656    3.43341754566346
C        12.02898699269003    4.97218023727300    4.33457204358136
H        12.68839342074613    4.10114363563167    4.34400862116136
H        12.02236659939270    5.40809777200692    5.34029847556354
C         9.56415766117322    5.35488399163616    4.40539185826893
H         9.75420595726964    5.74383084717850    5.41124905504635
H         8.68700399301960    4.70684251050735    4.44258567992999
C         9.25628491313942    6.51037665425168    3.43902781612247
H         8.20554381723301    6.79501679911182    3.55172499859394
H         9.86646830413343    7.39197682806912    3.66902809412655
C         8.08405265620378    7.67577868172312    0.89359106161803
H         7.31168047392170    7.43487151959315    0.16666645556387
H         8.60731044975069    8.56141185162270    0.53280429498992
H         7.61887941610669    7.91641590434995    1.84455585414399
C         9.03959280425515    6.54300143869160    1.00375828770159
C         9.54308435986211    5.88817910586679   -0.17276069496307
C         9.20791926244127    6.27365876218979   -1.57438489154047
H         9.81886207984075    5.68955261126684   -2.25862290260924
H         9.39035279573881    7.33302047106987   -1.74238716609627
H         8.15951501370328    6.06754638335569   -1.78536653670360
N        11.67636879816138    3.02484484926385    1.70037900676673
N        12.38865866548416    5.51936299047758    1.95463980304682
H        12.44823327887768    6.33555910429070    1.34141239677405
N        10.68962698635376    4.52492690034543    3.93327687390580
H        10.53868357962020    3.59476464823678    4.31951261414317
N         9.54634904047199    6.06823875454867    2.09837300669445
N        10.37322943893567    4.91278406860237    0.10087956941608
O        11.18768612055934    1.75685970304057    1.80842923850817
H        10.20235007550190    1.84750719980347    1.77288957786649
O        13.54984472972693    4.91250348915112    0.02475143334081
H        12.78262848511996    4.57467622036851   -0.48730118977148
O        11.02911739206961    4.25654705529656   -0.73396420584591
Cl        8.77542319957429    3.37011697112562    1.86372668520267
Co       10.59262354393365    4.57083033900029    1.87129665913928

