53
CSD_code = YUFXAY | q = 0 | S = 0 | Stoichiometry = C18H28Cl2N2Si2Zr | MND = 9
Zr        5.65214480988613    8.34134810215056   13.00530934445336
Cl        7.58789406764717    9.29879573369533   13.92616020373975
Cl        6.96512942757746    8.07088985400139   11.07670841142915
Si        3.78740004284399    9.02750484615988   10.02260330857223
Si        4.89590822248639   11.26133307079720   14.93513354890194
N         4.18178047277878    9.17063102987568   11.71239539361361
N         4.63302506583006   10.07241757140347   13.69040590566618
C         4.24214552184412   10.26751092739339   12.44431145073209
C         4.02024256573536   11.61635106311016   11.88112815927056
C         5.13189744013853   12.26386453400120   11.34962772235628
C         4.99716762757147   13.52856934762664   10.80552119361015
C         3.75747786709760   14.14825249231931   10.79013904213150
C         2.65222797402846   13.50303294528120   11.31888032701726
C         2.77948380873237   12.23683740845045   11.86546282659384
C         5.24708766415340    5.91349673793388   12.89744026806583
C         6.25908257940576    6.12301742575884   13.86429725197672
C         5.68768687677629    6.82786180624945   14.95018777082578
C         4.32487430788447    7.06152138931225   14.65076396491546
C         4.05237175654953    6.49558445440551   13.38275614209058
C         1.99009929938747    9.61123705583274    9.71998853254116
C         3.90566355665944    7.14313361821965    9.73408118515052
C         4.95709778194285    9.98697301152143    8.85383965323951
C         5.36351813711204   10.17501303334554   16.43510894451216
C         6.26449691569086   12.53364652886138   14.53107947808931
C         3.26662956876036   12.19530261801065   15.30365116119912
H         6.09253646978582   11.76111045632760   11.37044958667881
H         5.85890229947973   14.03157545359845   10.39305076227423
H         3.65339147996240   15.13537498962804   10.36526389268337
H         1.68686242553243   13.98705114067022   11.30614750934579
H         1.92264768811410   11.72791164689768   12.28051381095886
H         5.34676453015326    5.31149259971411   12.00144750216554
H         7.26672843773483    5.72111630343726   13.82705777033417
H         6.18179776986226    7.04592770575866   15.89004293977098
H         3.58839361461544    7.48213198244785   15.32450494029568
H         3.07319471638358    6.41326764664880   12.92723522769144
H         1.64666969772626    9.27410302503944    8.74868484467834
H         1.91483784253497   10.69351069846676    9.73804502604099
H         1.30697655022424    9.21796559745010   10.46610918710493
H         3.66037712076767    6.89705985424770    8.70656299228209
H         4.91729425329053    6.79337280462169    9.92528979329040
H         3.22352656038629    6.58956818914697   10.37393049790544
H         4.82226005161272    9.65873318243421    7.82828910489015
H         4.77407877364011   11.05766195486411    8.88385197484265
H         5.99579554798087    9.81177803293953    9.12030081438385
H         5.53194884299097   10.78676068347930   17.31479706888051
H         6.27990694154404    9.62551368177790   16.23385501874843
H         4.58105241230050    9.46082057251709   16.67843035483419
H         6.55711813475624   13.07387454338201   15.42553832789123
H         7.14981480155674   12.03658327176008   14.14403851831578
H         5.93628309110200   13.26474902970589   13.79719778044197
H         3.34450539238255   12.72492949960212   16.24622463889231
H         2.42150149414087   11.51802696049996   15.37477833056173
H         3.04289970089023   12.92580188734709   14.53318059306121

