82
CSD_code = YUGBAE | q = 1 | S = 0 | Stoichiometry = C24H53IrNOP2(1+) | MND = 6
Ir        2.68296463955602    8.44759823305081   14.79201729954451
P         2.47041574549938    7.83019282692305   12.52044107147523
P         2.27669371458338    8.78878733826328   17.09390382450352
O         5.46097895772695    7.84328758088830   15.10527973017099
N         0.45757436393861    8.18861014396148   14.74753891895568
C         4.61344312839627    8.77533194811389   14.79750770596710
C        -0.01823156163666    7.30168825176945   13.68363718205242
C         0.62559253303340    7.67136389621201   12.35427629326407
C        -0.13412393604054    7.83475966589788   16.03963823912927
C         0.41957751121563    8.72623597302032   17.14307933875314
C         2.84368592956372    9.07616643938215   11.12066254694901
C         2.12254271668001    8.80916889833236    9.79780702114697
C         2.39991630330939   10.45861893953216   11.60563572931645
C         4.35616883036572    9.10314122277178   10.89708070668955
C         3.11806335137143    6.10171792154478   12.03589812947914
C         4.58320877970866    6.01275957232178   12.46362078027498
C         2.98765681516684    5.76338053371375   10.55284833145605
C         2.33119874550340    5.05403291749609   12.82531374164617
C         2.59141369144543   10.49153165411433   17.90112787420973
C         2.30408025477910   11.56377332470286   16.84759351433875
C         1.71355716894187   10.80168558452722   19.11531975915646
C         4.06898351898969   10.58349015648817   18.28505641930861
C         2.80606244973798    7.40060983601184   18.29355062281496
C         2.51810473596123    7.67802781129991   19.76710357286751
C         2.05936151887894    6.12328259126720   17.90537928562984
C         4.30080263370219    7.14945512789418   18.09452761943156
C         5.36660390839019   10.05458277712438   14.49710149100398
C         6.81856254175245    9.59961395173902   14.31823243674696
C         6.83395328077494    8.27211174321781   15.07244549076797
H         2.44149756164069    9.94584088203403   14.47752443953015
H         2.88012474444568    6.93944257097362   15.11242286758255
H         0.15500506842220    9.13784870099723   14.51750398844844
H        -1.11383447356869    7.36016148800625   13.59390119630073
H         0.24042949086367    6.27866563450168   13.96468018890653
H         0.24743613830623    8.64683367583735   12.03775496170430
H         0.36835152286831    6.93786988102031   11.58749367895069
H         0.10310657473887    6.78727927543833   16.23578308243244
H        -1.23008909752263    7.93024893459856   16.00116552293831
H         0.07020289920106    8.38809069652568   18.12068104755404
H         0.06199590318477    9.74694478850766   16.98477055433115
H         2.48234996658384    7.92253459918621    9.29163785892244
H         2.30680593645972    9.65473037334540    9.13615332768611
H         1.04668619696958    8.72638565194108    9.92530708160034
H         1.32112833396111   10.51277187958073   11.73529076626548
H         2.67896558998454   11.20894567657609   10.86842589644762
H         2.86685462993852   10.71606332422712   12.55039159350945
H         4.69295666350647    8.23670792169102   10.33411661020072
H         4.87778058278485    9.12741582187182   11.85225385048220
H         4.63367622023041    9.99065888324413   10.33070828052645
H         4.66559721774682    6.16420963091401   13.53652716256751
H         5.20052051141951    6.74801599724042   11.95527885300652
H         4.97342874456431    5.02451547067746   12.22635958867605
H         1.97645196192555    5.92365799950635   10.18608115828880
H         3.22005565055022    4.70756878230041   10.41847640430074
H         3.68879065024322    6.32592152803974    9.94401674112454
H         1.31417667752175    4.94643007937954   12.45467529968512
H         2.31612083354772    5.30213014448669   13.88319506763210
H         2.82228851025360    4.08806457324986   12.72285153400162
H         1.27439274862038   11.52236222583218   16.49888498503415
H         2.95545317523910   11.45497349417644   15.98645311149591
H         2.46616390599362   12.54927819872402   17.28038906614119
H         0.65614866634725   10.79862131237649   18.86530107268268
H         1.96108289772861   11.80347708759298   19.46426317168162
H         1.87668975093169   10.12317383001180   19.94271239114412
H         4.28350841495521   10.03208888132750   19.19636194625941
H         4.34291245970616   11.62305872994928   18.45812416177234
H         4.69352429542685   10.19372048609655   17.48196214348152
H         1.47618966503636    7.94061896425361   19.93625654889870
H         3.15944066534060    8.45563776730740   20.17024429889097
H         2.72008633361482    6.76933067383912   20.33309317133332
H         1.00885847437482    6.16786008076933   18.18409809769667
H         2.50215075495947    5.27812766916209   18.42913158731142
H         2.15375688115203    5.93292752332528   16.83960569054745
H         4.49734668084748    6.88333088898778   17.05979118999254
H         4.61942910096907    6.32266023557042   18.72658002118391
H         4.89800683282352    8.01768653825950   18.35574012568117
H         5.25806742914448   10.71655185344725   15.36008840050212
H         4.96407427256853   10.58650784486885   13.63923863404004
H         7.04466477985092    9.44458719487166   13.26312905977811
H         7.53442173564141   10.30845359020993   14.72426886458439
H         7.41506285252387    7.48651841346763   14.58923222546703
H         7.16889374412623    8.37858478808707   16.10879675373850

