78
CSD_code = YUGCUZ | q = 1 | S = 0 | Stoichiometry = C38H29F4N4P2Ru(1+) | MND = 8
Ru        3.71538285825877    4.00378469097813    9.66187145485016
P         4.31664803353464    2.47761084352160    8.06801103077040
C         5.17947672083550    3.29518788141345    6.68358222361398
C         5.88885214308625    2.59828959657422    5.71405555007588
H         5.92642493355621    1.51770609375826    5.74350142442329
C         6.56856093371407    3.29377191950530    4.72681659719201
H         7.11488567896241    2.75273600493239    3.96939660873596
C         1.89102426478371    3.95895007017863    9.19513906270985
N         0.72407836642979    3.90789416684323    9.09279639327283
C        -0.59420341094809    3.78265455529026    8.63918159737134
H        -0.82697943871138    2.71695803612405    8.53252209431470
C        -0.76466673606589    4.50027806645404    7.28532707608304
H        -1.74866385727128    4.27766749875116    6.87136853822265
N         0.20117953512642    4.05037640460714    6.33019498856174
N         1.37634657243808    4.04976211466395    6.45893780166810
N         2.49961677152566    3.96304049453750    6.40165965598839
C         3.05205575040113    1.39570368579732    7.33495164679703
C         2.11094490817944    0.89379916552889    8.22834691813248
F         2.28141007511094    1.19051383956595    9.53861035033250
C         1.04855172729524    0.11192929802900    7.82931175374625
H         0.35267586081902   -0.26810627775467    8.56046851313598
C         0.92018603896177   -0.17939830504458    6.47998671552971
H         0.09974451697048   -0.79338102765253    6.14320957443803
C         1.84190628460069    0.30908968438263    5.56802426064475
H         1.73520517571692    0.07461898536556    4.52033404083431
C         2.90177853401222    1.09584098029996    5.98634577125715
H         3.60257040734624    1.49084746217599    5.26731061121514
C         5.64330816472170    1.33010577315270    8.58887775043141
C         5.50192858544283   -0.02081007127860    8.88792017022638
F         4.31375565817605   -0.63109953357038    8.73465160273643
C         6.56249153424865   -0.78789919076640    9.34048162412955
H         6.39545632201761   -1.83209712988340    9.55317688206770
C         7.80281042470658   -0.20297778971803    9.51164052787137
H         8.63125559635564   -0.79464727974786    9.86737187366615
C         7.97569941754041    1.14299519064128    9.22348425023462
H         8.94306589130730    1.60371698898702    9.35150402354779
C         6.90884985449939    1.89260482584111    8.77265477038537
H         7.04403681037509    2.94152353699238    8.54344272954339
C         3.35108984009274    3.29204159737121   11.75385716291389
H         2.56966559789110    2.64781987430498   12.13331981906551
C         4.64567717592811    2.88040768106813   11.37542521053529
H         5.01177140817171    1.86240260449798   11.39169417791777
C         5.42046856408296    4.03826378662982   11.08814677648025
H         6.49576730825713    4.05647205203248   10.96948973840609
P         4.31157756441776    5.51586660105196    8.05604060319567
C         5.17739931869758    4.69156102448945    6.67745829231814
C         5.88583652393088    5.38211465023942    5.70233607243322
H         5.92257083949211    6.46299356175764    5.72318245396659
C         6.56728710545863    4.67988028649233    4.72117052838698
H         7.11289946082871    5.21596041435955    3.95971270325102
H        -1.26874960178093    4.22636016092698    9.37624703834610
H        -0.66787002337441    5.58554072057404    7.42120272698550
C         3.03677286533496    6.57817295336747    7.30843696314590
C         2.07432851136682    7.06312730726250    8.18883011017248
F         2.22804657022596    6.77027698595277    9.50081048903066
C         1.00001464253930    7.82089219722586    7.77377770282612
H         0.28862564736595    8.18953472985357    8.49600655033953
C         0.88115986742803    8.10508611977338    6.42146451665459
H         0.05186694267302    8.70040367303861    6.07270901772220
C         1.82353249796003    7.63229000625764    5.52239778384009
H         1.72395794350039    7.85980736749248    4.47253366229080
C         2.89517035557729    6.87013550888750    5.95697861607915
H         3.61205499127185    6.48761959918007    5.24722953822856
C         5.62441549730636    6.68473231036009    8.56409435465513
C         5.45410810743839    8.02867553993728    8.87962002710061
F         4.24763418731693    8.60850876741938    8.75094868707408
C         6.50114128356537    8.81789995239462    9.32474213577439
H         6.31148592213117    9.85558804275303    9.54998893572386
C         7.75764142032990    8.26178119987516    9.47343744836402
H         8.57623157291420    8.87023577036308    9.82360470774757
C         7.95914583518619    6.92318773389830    9.17035984428257
H         8.93899184310867    6.48502102047379    9.28144516178772
C         6.90533592928840    6.15124256292104    8.72596322150642
H         7.06471053927525    5.10882004962101    8.48349998662635
C         3.32770173358738    4.72152519416850   11.74940530938843
H         2.52478600910939    5.34244311379108   12.12274154599884
C         4.60669238244370    5.17284123265443   11.36552690452960
H         4.93960491179995    6.20232479549442   11.37429501626014

