81
CSD_code = YUGDIO | q = 0 | S = 0 | Stoichiometry = C40H36FeNOPSi | MND = 8
C        17.68744694179157    8.57350841601524    4.49882301230026
C        18.83575744282062    6.47432564370713    3.08069314695204
C        15.38957120734755    6.92997571410078    4.44728668411417
H        14.79631751799777    7.82176027752172    4.33197421528670
C        15.76110263105338    6.34335797236465    5.67263355556968
H        15.49636515274158    6.69488796698912    6.65560420528497
C        16.44003808119631    5.13464273480820    5.37718553587825
H        16.75296425539367    4.40148060635647    6.10443058291545
C        16.45008851552697    4.96296918874042    3.97655199568484
H        16.78948328688856    4.09127460128067    3.44256919685003
C        15.81237008612438    6.07741715144221    3.39631717376724
H        15.57871244019863    6.18226041945565    2.34978926098551
C        20.15084120811499    5.33251949300883    6.29485668947286
H        20.86709779662069    5.54672178211806    7.09649344954727
H        19.48874450748673    4.52621303970823    6.62143524098189
C        20.87309265271942    4.89700423099357    5.02464300940843
H        21.48949787485829    5.71697368482789    4.64624497217132
H        21.53776179100664    4.06222568874271    5.26274713895482
C        19.89011172377993    4.45991902273661    3.92819665775121
H        20.33555922016673    3.64318166351283    3.34887669193930
H        18.97083883386219    4.08843207883022    4.39811317346676
C        18.49921202945625    7.23780608539669    7.64283242408686
C        18.14758032842920    8.56313529820575    7.89315976938328
H        18.33730319195992    9.30850321226082    7.13448286491146
C        17.56822812087846    8.92099549991062    9.09466040351871
H        17.30556647344617    9.95207585708441    9.28025444307378
C        17.31880924114686    7.95691006261608   10.05929536741195
H        16.86409607615591    8.23445123872697   10.99875486856434
C        17.64840102634399    6.63554980299460    9.81237649206369
H        17.44911933751413    5.88028068780947   10.55909765648609
C        18.23006340103240    6.27483553968320    8.60897481025912
H        18.47480475639193    5.23799868534430    8.43103310016861
C        20.49929225746991    8.05081008750692    5.83140368983764
C        21.29305451484157    8.38041231030688    6.92685976683609
H        21.06915953435970    7.96092062864474    7.89896078557611
C        22.35383568330038    9.25421601421087    6.77649453086852
H        22.96230363315556    9.51319660165208    7.63095137650129
C        22.63830151546620    9.79636827961727    5.53284267018098
H        23.47028307130581   10.47563758611344    5.41928411477906
C        21.85402508347780    9.46960995367445    4.43913427472916
H        22.07333419342762    9.88690961453998    3.46750889883615
C        20.78565371457184    8.60361118593405    4.58948142412412
H        20.15871461728846    8.34773780797329    3.74701647990967
C        17.65540991871745    6.40109216675475    0.27649463381445
C        16.80934564285608    6.98839871255145   -0.65870088219695
H        16.75922724992426    8.06602257613898   -0.72499991582552
C        16.02759536369383    6.21424400023889   -1.49783871987280
H        15.37344703268284    6.68795286086195   -2.21637198018021
C        16.08110794109791    4.83306772476497   -1.41651661861621
H        15.46839007894423    4.22682190928149   -2.06839606343118
C        16.92468868961630    4.23274038404959   -0.49630702189130
H        16.97194167350388    3.15455314060720   -0.43181150424420
C        17.70344016956509    5.01247701435804    0.33874291598070
H        18.36286409256175    4.54873491134869    1.05713451487372
C        20.43811633033550    7.72323271152926    0.68008564092586
C        21.59879435005842    7.21959434164758    1.25473875571927
H        21.52064146120548    6.61819296293833    2.14724460517698
C        22.83941293396531    7.46901731437478    0.69539602753383
H        23.73103133937316    7.07149220441917    1.15991527448270
C        22.94043988008573    8.22823875135561   -0.45786895433714
H        23.90832064881684    8.42605085388601   -0.89614103085093
C        21.79327046223183    8.73118695763303   -1.04910105450219
H        21.86514392949578    9.32144302886027   -1.95177388753762
C        20.55704439921315    8.48032771305737   -0.48283275631304
H        19.66609487173440    8.88005722001856   -0.94588017031774
C        17.92997495840815    9.14292363547340    1.69935277872464
C        16.55173624108442    9.27707610294990    1.83406660157230
H        15.92907332347498    8.39848073864048    1.77118754614301
C        15.96958262193821   10.51244252736189    2.04788382113156
H        14.89652371246743   10.59421362001006    2.15234973406090
C        16.76143087352108   11.64438194355483    2.13716001690283
H        16.31047109850048   12.61053657269277    2.31305062647120
C        18.13461819582796   11.53120906088511    2.00259718549340
H        18.75852914604161   12.41104340936681    2.07328668548602
C        18.70837298501378   10.29283988097794    1.78337694368673
H        19.78117492629715   10.21264002856812    1.67833725617149
N        19.59782678290799    5.48975922957708    2.97510117588359
O        17.66177002154644    9.70704252262138    4.71332325509237
Si       18.72223410490693    7.44687617851520    1.44218496952236
P        19.13102741325736    6.84771086450233    5.97578929406254
Fe       17.55878016599739    6.84076080616225    4.52741449981920

