53
CSD_code = YUGFEL | q = -1 | S = 0 | Stoichiometry = C24H25S3W(1-) | MND = 8
W         2.33874302366816    4.55429760697037   -1.27197753993501
S         1.34825222268175    2.66401344464212   -1.84300819841890
S         4.52687133773852    3.95483979598231   -0.60655844910118
S         2.00848772222925    4.62268917580384    1.06682198784141
C         1.38919868400312    6.65506707985169   -1.57149239007435
C         2.80985171768079    6.76129619492632   -1.69368336380067
C         3.21942466078590    6.03047549048230   -2.85541515231183
C         2.04315898757797    5.51208021219238   -3.47051246368084
C         0.92210754076665    5.88935364770115   -2.68142181635250
C         0.54779864900652    7.41271566627810   -0.58834195975556
C         3.70074753140592    7.62154216374046   -0.84316472193251
C         4.61043390280395    6.03214700931926   -3.41647572025009
C         1.94108219916250    4.75327396837260   -4.75919996778142
C        -0.50193595987391    5.59529847936199   -3.04536290635564
C         4.56658527121160    3.76194134354542    1.14100323626054
C         3.45221978790327    4.01401617400985    1.86838250943253
C         5.86673011999958    3.40631608588151    1.69562052017344
C         6.35799114191877    4.02911849350068    2.84597778251118
C         7.59655294225113    3.69216029569002    3.35316438356604
C         8.37777624688408    2.73672542657698    2.72208954450706
C         7.91040999826137    2.12906431783873    1.56792362002159
C         6.67189333348013    2.46221350840337    1.05703457379389
C         3.31890905404314    3.78476050471482    3.30113928898614
C         2.63158026910174    4.69645141915896    4.10359400779910
C         2.49390807995878    4.48039158293530    5.46013057255234
C         3.02991978873812    3.34470113409634    6.04513191276672
C         3.69398515093615    2.41961942915223    5.25435730362996
C         3.83515676761382    2.63165207851601    3.89809245198246
H         1.02648125972621    7.43110234993839    0.39023555294417
H        -0.42882043591685    6.94661721349203   -0.47159569970355
H         0.40344083878736    8.44447201518563   -0.92237800721292
H         3.36888361912117    7.61318398529584    0.19611608480054
H         3.69153496193209    8.65823364656471   -1.19546803187446
H         4.72747132087154    7.25710461269327   -0.87391754035965
H         4.68887889221938    5.35437658922642   -4.26382470257870
H         5.32861126010388    5.70825161659908   -2.66184472625908
H         4.88711013241595    7.03666600736322   -3.74760295940249
H         2.92401076498137    4.45858737447405   -5.12007930160073
H         1.45719393480525    5.36718101778473   -5.52352105690478
H         1.34701876297468    3.84956439689030   -4.61699526739944
H        -1.16983279384583    5.81257514549299   -2.21459252920837
H        -0.61509311866810    4.54302747826150   -3.30771788389134
H        -0.80652477428437    6.19954024726932   -3.90439875503530
H         5.76036678453101    4.78457667866185    3.33538112542415
H         7.96052042231525    4.18204102390533    4.24692848809650
H         9.34724392990459    2.47365082013751    3.12381534700173
H         8.51813532961579    1.38897999816598    1.06404132556024
H         6.30569773223152    1.99274539646621    0.15594971479571
H         2.20774599151414    5.57683221631226    3.64314275530254
H         1.96385835133788    5.20200969578122    6.06830101807915
H         2.92321144694778    3.17605642953298    7.10846831636071
H         4.10018768559906    1.52167833637813    5.70120072805699
H         4.34022753848272    1.89992397576207    3.28460695394328

