78
CSD_code = YUGKUG | q = 0 | S = 0 | Stoichiometry = C38H35O4Ta | MND = 9
Ta        1.78505495149976    3.50586095724390    4.07335759857960
O         3.35815527058065    3.88655554694686    5.02992455363172
O         1.63358865982831    5.34810611166175    3.73488868426652
O        -0.05357145133672    3.36876115374585    3.75756140914731
O         1.66556416162407    1.91520221476057    5.05190829377435
C         2.66492039782116    2.77546222018157    2.03533834983971
C         1.49172179175970    2.79758026792931    1.11912911451695
C         1.05681903363309    1.52809177686420    0.92912544986825
C         1.93252390687922    0.61270845793749    1.64714869837374
C         2.90308026327662    1.32458833148734    2.27020739013386
C         3.86742459019127    3.60929975275172    1.61684431826704
C         0.97092529313014    4.05993836082708    0.50519244316710
C        -0.11610791980757    1.06342501792607    0.13296245576194
C         1.73653194323536   -0.86614426232167    1.64112270903735
C         4.07546490950303    0.81072553944342    3.04681973289188
C         3.63157904979459    4.35022613000426    6.25091908998066
C         3.75846258701269    3.46025453803475    7.33348397155487
C         4.01238656770796    3.96813763557768    8.59772720339166
C         4.14218208034887    5.32952052995153    8.80617180268944
C         4.00567817139701    6.20409379487631    7.74293617840126
C         3.74984873627054    5.73597328809574    6.46422356191920
C         3.55367074375318    6.69414085690043    5.31133628285425
C         1.20532556874212    6.40427634419124    4.42855362638960
C         2.10755688204105    7.12756909077256    5.22995413783417
C         1.64355873364881    8.20571850166075    5.96606707003569
C         0.31057576965353    8.57382997431961    5.92402451903969
C        -0.57815017647389    7.85319388167851    5.14640330499276
C        -0.15304805992722    6.76970403823143    4.39402232061262
C        -1.13441794161742    5.96718511511630    3.57010288693541
C        -1.17430159402889    3.59805666232465    4.43599718631852
C        -1.77015608169728    4.87248247115205    4.39641452201197
C        -2.91669350505615    5.10486988740730    5.13844205081288
C        -3.47797660586876    4.10344895804177    5.91124018916384
C        -2.88617470541502    2.85336440302693    5.95653053548775
C        -1.73801649464491    2.58216455043151    5.22995411039799
C        -1.06244064393733    1.23206242712663    5.30747978581685
C         1.25244664194525    1.54636084796417    6.26098024978393
C        -0.09344765591033    1.19108370537513    6.46707284653706
C        -0.51162748721142    0.84409756595652    7.74151438313968
C         0.37360816407109    0.84454432778235    8.80523930699576
C         1.69486788726200    1.20294437978967    8.60311645145068
C         2.15172747176907    1.55488638337096    7.34347847875347
C         3.58673071920183    1.97370819732108    7.11823364458272
H         4.66370297735233    3.54944799307777    2.35745315525562
H         4.25317358238997    3.23463594820715    0.66714409325464
H         3.58953931463148    4.65412734812232    1.48520280446421
H         1.19838139269007    4.91482945227129    1.14039116753950
H         1.43008271742705    4.22684454927475   -0.47137470835758
H        -0.10674365354656    4.00855254869459    0.36540855088671
H        -0.59063059365581    1.89242182764860   -0.38371221140825
H         0.19348045031216    0.32433307559442   -0.60517758868588
H        -0.85209861064145    0.59430366538533    0.78631226288772
H         0.72033135296156   -1.11436259787635    1.94612034918790
H         1.89001604403296   -1.26658245052768    0.63844405690208
H         2.43367979542081   -1.35337560991300    2.31678476619918
H         3.79334370390547   -0.04695515788888    3.65465383654725
H         4.87353296420408    0.49672072112600    2.37118576510631
H         4.46651307143381    1.58605819502372    3.70394159068801
H         4.11181896018383    3.28539842723519    9.42904374900952
H         4.34732637544698    5.70854053981206    9.79600224085548
H         4.10021236091017    7.26778688430186    7.90609306404088
H         4.18735387847077    7.57136969497789    5.45741797969331
H         3.83297702670914    6.19579417980984    4.37846031182969
H         2.33657858323447    8.76392198083169    6.57854157859536
H        -0.03556078625790    9.41994968244112    6.49828114287244
H        -1.62035747208273    8.13634287198563    5.11944966242107
H        -1.91387438270446    6.63206967877849    3.19173321733052
H        -0.60707545401111    5.51049104533287    2.72882850768236
H        -3.37672063212693    6.08193268256307    5.10786522561551
H        -4.37560676793436    4.29754999846263    6.47884982750992
H        -3.32236362621293    2.07414256236856    6.56457498239886
H        -1.81876828011905    0.45542175764405    5.43991774350356
H        -0.51325925113430    1.05368522373151    4.37770128591114
H        -1.54390365534785    0.56866074217415    7.90182998653569
H         0.03377625965118    0.56647325442572    9.79155517712426
H         2.38394534646775    1.20713064696792    9.43522157468592
H         3.86914947836449    1.72556251979094    6.09189842059159
H         4.23339690479846    1.43281618430184    7.81250553221342

