53
CSD_code = YUGMET | q = 0 | S = 0 | Stoichiometry = C16H28Cl2N6Zn | MND = 4
Zn        2.00768495240333    1.23365545204075    3.09875290124664
Cl        3.49560149180413    2.78477271029541    3.79910529342776
Cl        2.69707403192568   -0.73467714801919    2.29350789652816
N         0.73382763674793    2.50589480149393    2.15830617290670
N         1.46910355311292    4.75991342980081    1.54836977133462
N         1.82371183220357    3.07379663321340    0.19291802868003
N         0.50559232936832    0.82834752940944    4.40067776239348
N        -0.59206139279802   -1.22642780521544    5.14185744053426
N         1.46664393717320   -0.79593547749970    5.75629694117933
C         1.30310621515105    3.41196004471064    1.40275940309240
C         1.38103150467195    5.48522222306589    2.79328658695399
H         0.35605981242967    5.50696154850236    3.16274636664389
H         1.71347441205173    6.50600883923595    2.62852646571679
H         2.03446489674680    5.01764049429586    3.53441947241030
C         2.15174916754677    5.24176489579127    0.43035761819674
C         2.51041831189859    6.67651574616999    0.27422954134870
H         2.88216567223235    6.85006845440708   -0.73106392412619
H         3.28959917080656    6.96475402734620    0.98035785344404
H         1.64173256145122    7.31474312556303    0.43297297426381
C         2.37366641062649    4.19878905449262   -0.40105778271915
C         3.05316100852239    4.12607084398119   -1.72038016927422
H         3.48706489868330    5.08903491666137   -1.97072764575678
H         2.35134735015595    3.84704073874977   -2.50713221999995
H         3.84926321264576    3.38360976752242   -1.69328753802169
C         1.88719340918850    1.73392236539329   -0.31869894347525
H         2.82855650796741    1.24975205644064   -0.04514686884112
H         1.79185619315650    1.75046483110743   -1.40325597578207
H         1.06906357602960    1.15885365542797    0.11182561243228
C        -0.13431969423862    2.84343924452424    3.26363598269004
H        -0.99119264652419    3.43173447252818    2.91057305714050
H         0.38575575395900    3.38928235161311    4.05681344514859
C        -0.63747083449981    1.52979709700774    3.86433290025984
H        -1.35724900715603    1.75705816464735    4.66130187644198
H        -1.13524186826556    0.96839026131596    3.06565791599576
C         0.42618116968000   -0.31694640284661    5.02391394993628
C        -1.81049776294770   -1.26772424607389    4.37347362361640
H        -2.38938815662255   -0.35515813882718    4.50556540018759
H        -2.41049801700959   -2.10701909048679    4.71557915853590
H        -1.59168868643475   -1.40655628046327    3.31191897543913
C        -0.13626562532291   -2.30552427281353    5.90517496827163
C        -0.98739989344802   -3.48659314439105    6.20921897196229
H        -0.45031630605202   -4.15322331599064    6.87679178353859
H        -1.23415264618450   -4.03956707028062    5.30254467416101
H        -1.91388548289289   -3.18847984416472    6.70031756326045
C         1.13517042278623   -2.03654159186860    6.27561370760247
C         2.10645261888512   -2.82786792944767    7.07380603732599
H         1.69985858350256   -3.81033198377788    7.29254828336024
H         2.33589345618634   -2.33119361690201    8.01700676509502
H         3.03363404714977   -2.95128355710572    6.51663774174391
C         2.74219696094654   -0.15378578092627    5.91067614607818
H         3.44747646836347   -0.49600359080385    5.14876880045031
H         3.14396001915197   -0.37817408368849    6.89743460350501
H         2.61723446307325    0.92395459489454    5.81417063339623

