91
CSD_code = YUGQAU | q = 1 | S = 0 | Stoichiometry = C36H36F10IrN6S2(1+) | MND = 6
Ir        4.15146018281459   12.29558448553862    1.75796284312216
S         1.13145573397665    7.34008387661816    2.29314446635453
S         6.04085215364735   11.33867946939643    7.19048670662122
F         0.50620015627301    8.55581533695918    3.25824239230589
F         0.54036074553707    8.14213849331709    0.95231101104687
F        -0.29726770817962    6.61795527889893    2.39972625404568
F         1.63319587805858    6.09284047006997    1.32794435742807
F         1.59719472769341    6.50422185405268    3.63966228536878
F         5.47940781505399   12.39640313749533    8.33336679498996
F         6.99147202551725   12.54742510958596    6.53697031281582
F         7.26619634738702   11.00635008357415    8.17148453650529
F         6.71549563688961   10.26073797593254    6.10307899491555
F         5.20293125550673   10.10470006583722    7.90095155000329
N         6.07291828476604   11.67243486467872    1.74788182002296
N         6.23804311391881   10.35788559480008    1.97765076980226
N         2.18289015605299   12.67172451604261    2.01075945880146
N         1.73356652260243   12.48928842311638    3.26492298143344
N         4.15184979842920   12.55196374883904   -0.34537481658632
N         4.58904236440738   14.35718520061970    1.53684460682145
C         7.54477181403839   10.06198744413903    2.09942849128308
C         8.24839858839151   11.23474067709581    1.93962396052648
C         7.28119029140422   12.21776536165500    1.72416934747736
C         5.08640859379973    9.56739564656915    2.05007700701210
C         3.88882492424659   10.29114813161912    1.90005840028778
C         2.70581270466369    9.56473523163639    1.95089422911452
C         2.75172325019558    8.20757473449115    2.16634350617313
C         3.91843058974386    7.49820849793989    2.32290698283358
C         5.11737531192826    8.19372608857081    2.25189708900873
C         0.39383106848855   12.60437535187377    3.30644233895386
C        -0.03529481849372   12.87389607398931    2.02611536334978
C         1.12324843538354   12.90347204765727    1.24820176046520
C         2.68360282000762   12.22393393626289    4.25646444107893
C         4.00354759298151   12.14701149655799    3.77414402986630
C         5.00042879116481   11.90111562263350    4.70993814610471
C         4.66161799856940   11.72263011318877    6.03057543841955
C         3.37279817381654   11.78440690696449    6.50384485029867
C         2.35824840979338   12.05248892523303    5.59557448766302
C         4.39084456794602   13.80465913795096   -0.77774351058916
C         4.36948406457891   14.10864602364196   -2.13272332214667
C         4.10437716376530   13.12828827785829   -3.08828795180890
C         3.85679311856319   11.84581862458197   -2.60399217320037
C         3.88898356200784   11.61016675400798   -1.24206940559889
C         4.66501077283808   14.80278903850792    0.27079222410981
C         4.83868925998416   15.20842046936994    2.52640540431414
C         5.16292392692813   16.53285300518950    2.31738032269891
C         5.24395237296483   17.03320873165821    1.01629705669209
C         4.98973042774215   16.12708676486077   -0.00825979351961
C         4.09331472398996   13.48234677261190   -4.55960863862660
C         3.79220828086059   12.27195780107047   -5.44555904456766
C         3.01393322797739   14.54784119376910   -4.80346007118847
C         5.47347463816578   14.03750922120174   -4.94302277339158
C         5.59403719830971   18.48485201012052    0.77348248840124
C         5.62268847383670   18.84454079255792   -0.71379210507522
C         6.98195223985093   18.75983739634378    1.37144481138006
C         4.54306588993437   19.36326707613058    1.46888235244309
H         7.90002905793921    9.07180407723376    2.29394264899713
H         9.30912127753115   11.36569636868084    1.97822008173513
H         7.42141046026429   13.26817423084614    1.56018000245424
H         1.74488010077190   10.03430290960655    1.82789517287131
H         3.89267282150757    6.43659536972172    2.49723395019183
H         6.04863091455873    7.66464130243970    2.36960009495838
H        -0.17138919671962   12.48577258975791    4.20698015017941
H        -1.04185899011413   13.02255890611347    1.69672175835078
H         1.21584062883195   13.07873043839672    0.19434679457903
H         6.03903447054818   11.84475351891468    4.43183139204771
H         3.16649693758865   11.62651135517416    7.54817013975947
H         1.33775709341955   12.10854440454334    5.93682836380661
H         4.55690456074011   15.11857880224412   -2.45418712322810
H         3.63697749722923   11.02638333363252   -3.26532828783496
H         3.69070067647674   10.62152529652540   -0.85240557017426
H         4.78067464177001   14.80672150046731    3.52816606468748
H         5.35126107040743   17.16269359046315    3.17033548440517
H         5.04826056894112   16.45243399818402   -1.03105792525532
H         3.79739686633739   12.58025593749184   -6.48768268689310
H         2.81104808743654   11.85699968495799   -5.22784482685540
H         4.54620819948024   11.49774107045016   -5.32503513000103
H         3.21570211061862   15.46244530539816   -4.25248532983016
H         2.03661581621753   14.17400276247279   -4.50628541932404
H         2.97767499263717   14.79358886454835   -5.86110531487662
H         5.71054994634397   14.94671439759603   -4.39729685006626
H         5.49070766899353   14.26860539382313   -6.00444324232697
H         6.24877945565010   13.30169181605127   -4.74100292307940
H         4.65102218246173   18.68802536839810   -1.17745305642115
H         6.37792488942338   18.27025425990504   -1.24609513841062
H         5.87322730488518   19.89644025376533   -0.82147669414276
H         7.73228132896347   18.12717650694449    0.90196707384199
H         7.00074852330144   18.57991667227174    2.44233738510560
H         7.25372714000553   19.79745113185235    1.19865439252597
H         4.52926156044553   19.19946265735572    2.54240600864349
H         3.55042690566843   19.15506820721224    1.07510896126759
H         4.76849878874394   20.41101835169566    1.29067653226584

