91
CSD_code = YUGQEY | q = 1 | S = 0 | Stoichiometry = C36H36F10IrN6S2(1+) | MND = 6
Ir        5.95748856874442   13.57727549464184    4.01992853671171
S         5.66361587912733    7.65645566025409    1.04068625606240
S         0.20098779428751   12.92696615112755    7.25409609460031
F         4.87471705604093    6.87615041097222    2.26266452679412
F         7.12019993847171    7.19111800247172    1.68118924588254
F         5.64863627328466    6.28314176563333    0.21732425396894
F         6.46158709494114    8.34473460350067   -0.24808026447460
F         4.21709570257672    8.03558505817055    0.32564808122520
F        -0.55171494297591   12.01135959603421    6.10550909065193
F        -0.41561025468847   14.30265436299241    6.56434244275150
F        -1.13332023526223   12.83601892958941    8.13467049686572
F         0.86477600472522   13.84728719575950    8.47250965428437
F         0.73308145344234   11.55756109165432    8.02165190194969
N         5.34455939369023   13.92349287940713    2.13215137940492
N         5.17023433191249   12.82529968850205    1.38147841313212
N         6.42667058106266   13.07956382617880    5.91536720378202
N         5.37638244036128   12.85449317839481    6.71929670152861
N         6.19348815125249   15.63720185658378    4.50116237981922
N         7.96936687179999   13.95992539979625    3.44006290971971
C         4.73940144520350   13.15547140293510    0.15082566398495
C         4.63274033082066   14.52873588207959    0.11106530857673
C         5.02231751279314   14.96610061708215    1.37794883584965
C         5.45151230027155   11.59237635853272    1.98071376556141
C         5.82883719945807   11.66419742452635    3.33562475967489
C         6.12071729800766   10.46125432002089    3.96921241139978
C         6.05952313512850    9.24612064614614    3.29464812048058
C         5.69809546680779    9.24585521663143    1.96895959481394
C         5.38254566437253   10.39435547213654    1.28223503657609
C         5.78821464349021   12.51582859246823    7.95414010117542
C         7.16606940660704   12.52424503641968    7.94093365156228
C         7.52058722433254   12.88290165129948    6.63947522253752
C         4.10206660118094   13.00316103685807    6.16050661599096
C         4.08978701384676   13.32131708606165    4.78866921506186
C         2.84302207628344   13.48015530699488    4.19365520450458
C         1.66404562519944   13.34812379582212    4.92023253215574
C         1.74511423417332   13.05098040932178    6.25930880147808
C         2.94171924720592   12.86628721165146    6.91065903490479
C         7.38796628519426   16.16162948987678    4.17253053539114
C         7.62397547970248   17.52609834106928    4.27782302544681
C         6.64037610032783   18.39409554365548    4.75034178013548
C         5.42476576813183   17.81308443534500    5.10471543010307
C         5.24902271602480   16.44976062962002    4.95714889246536
C         8.40201383331884   15.20941202924427    3.68776128411725
C         8.84033383903993   13.06569707457958    2.99066940882689
C        10.17567225950687   13.34832513878782    2.77081146138407
C        10.66370542715823   14.62524115711423    3.03942219083155
C         9.73482539225375   15.55459910586509    3.50598311488225
C         6.91693128641821   19.87868947659943    4.84631558887210
C         5.72981019474044   20.65425335227108    5.42052997349593
C         7.21532821977905   20.41143086061068    3.43640270580415
C         8.13264125675167   20.10094456256412    5.75847581620029
C        12.11271122190398   15.02181448390713    2.85808052008772
C        12.18654661823968   16.19263299975090    1.86648290537431
C        12.67662528757306   15.45280781244990    4.22074533257364
C        12.96592810932422   13.87242361068143    2.31822419555724
H         4.53428039472271   12.42749606061063   -0.60621451388605
H         4.31634346480757   15.13151221437982   -0.71396762246187
H         5.07246182138007   15.96956724723669    1.75269276911341
H         6.40995682321327   10.45160692533208    5.00881085085948
H         6.29256162379657    8.31815952156755    3.78839399034082
H         5.10399721371115   10.33986347623986    0.24437430419407
H         5.10943751880569   12.29116099067226    8.75034396708831
H         7.82421130915101   12.30111433124031    8.75404900807789
H         8.50128388544716   12.99561288551387    6.22061894305191
H         2.76883049641499   13.71842886948666    3.14379163413072
H         0.70148418574125   13.47809399567566    4.45571596077788
H         2.95066220982399   12.63322672274241    7.96103657879928
H         8.57768425488277   17.92410565399408    3.97676039684221
H         4.60852446582031   18.40115719892449    5.48570010711015
H         4.30480605628688   15.98927176019856    5.21305306292570
H         8.45282784427497   12.07426819282296    2.80098626226902
H        10.81537896127418   12.56637489168021    2.40127163576465
H        10.06110699747688   16.55276154017265    3.74226692008107
H         4.85091283990768   20.55866234466048    4.78755496186367
H         5.98421002602298   21.70932404603673    5.47553288785695
H         5.48845164292201   20.31811865602210    6.42605712285882
H         6.36557058320377   20.24334254503480    2.77831400253392
H         8.08879233652651   19.93449385582437    2.99970737517824
H         7.40330132435497   21.48035972023567    3.48384257291012
H         8.31698646416267   21.16621345178896    5.86539695780606
H         9.03219389286062   19.64454643271862    5.35455118579880
H         7.94798575753101   19.68549766349848    6.74669278702472
H        11.66363019872558   17.07070941086672    2.23573805073769
H        11.75294410075306   15.90907421517518    0.90996101509359
H        13.22529025062116   16.46543058832154    1.70264203392006
H        12.14693034177357   16.31108513967171    4.62555176492990
H        13.72304077027937   15.72369354852700    4.11195387934008
H        12.60824205269077   14.63637639795820    4.93643616195974
H        13.99207988515150   14.21126043535037    2.20360855474090
H        12.61408631906982   13.54421138618434    1.34316710274790
H        12.97097386304888   13.02782496098764    3.00296998511774

