55
CSD_code = YUGYAA | q = 0 | S = 0 | Stoichiometry = C12H36MoP4Se2 | MND = 6
Mo        7.28334385173329   -0.04937677390512   11.11103318057161
Se        5.00845368007067   -0.04984209680034   10.48724538754436
P         7.43441391576772   -1.77310199542726    9.36578550389822
P         8.04695978540779    1.67101244674159    9.53328610502935
C         6.84481140428717   -1.31023187799042    7.69608649533872
C         6.33721709999603   -3.22717754003527    9.54106598582610
C         9.05246425958254   -2.54333265870531    9.01533819674246
C         6.83395932018307    2.43827198347513    8.40472046660036
C         8.89934247529684    3.12729913616960   10.24150684437703
C         9.40703300885648    1.20660165236472    8.40026470593602
H         6.91503107538202   -2.17318468159300    7.03168869973774
H         5.79900166618488   -1.01134103555062    7.79862981622930
H         7.40833242921284   -0.48126119460707    7.27477740412380
H         6.45483498643069   -3.87996668664267    8.67443082122675
H         6.54220584034767   -3.78957104867307   10.44877816797223
H         5.31200098146492   -2.85184422638326    9.58038530950429
H         8.96660468972463   -3.27462690655320    8.21034283132003
H         9.76555978248714   -1.76521850111964    8.74266490755022
H         9.41930681484166   -3.02420706271161    9.92227611287852
H         7.31706273053322    3.17216808349113    7.75805952516604
H         6.36384741554696    1.65916620242973    7.80446830425551
H         6.05290865309508    2.91552779779023    8.99688452898586
H         9.24637995003269    3.77491893070869    9.43453409326664
H         8.25679150471640    3.69473286035043   10.91037737596744
H         9.75708361491256    2.75373445293814   10.80556143167641
H         9.67905576294947    2.06526016994695    7.78405261834021
H        10.25687680689372    0.91893240219460    9.02362597367192
H         9.14147846483667    0.36932990481285    7.75946463286554
Se        9.55759731935904   -0.05058523029448   11.73657623705834
P         7.13415707707411   -1.77281922139357   12.85754304523437
P         6.52139551284089    1.67090563075447   12.69018633932242
C         7.72349155009994   -1.31023644242628   14.52739870730239
C         8.23105376290037   -3.22713006098799   12.68231028176854
C         5.51605814205891   -2.54309060141242   13.20789042106462
C         7.73430377518959    2.43830114341131   13.81873599164028
C         5.66895121014294    3.12715090114024   11.98190182675425
C         5.16121209971874    1.20659841399986   13.82312310775269
H         7.65318978823065   -2.17323132245545   15.19173756275118
H         8.76930608659235   -1.01134137482654   14.42496027826556
H         7.15992786617441   -0.48128409348369   14.94868497068884
H         8.11335373919922   -3.87992564800575   13.54893421776731
H         8.02600015802887   -3.78950364135556   11.77459660704796
H         9.25631701195369   -2.85193582709756   12.64299078699572
H         5.60190533171530   -3.27444537613599   14.01284297287471
H         4.80289902881987   -1.76505845706760   13.48064082258033
H         5.14915069078571   -3.02395644475497   12.30096869193988
H         7.25118897150461    3.17222739124077   14.46535460532592
H         8.20439859763871    1.65921115799973   14.41901776102856
H         8.51534693876197    2.91552776113580   13.22653870992777
H         5.32189761823808    3.77478618795083   12.78885818425931
H         6.31146535899122    3.69461656217049   11.31302088776311
H         4.81119602752941    2.75360245716295   11.41785207749141
H         4.88917166160727    2.06527900331979   14.43929834710340
H         4.31138158619050    0.91892280067638   13.19974295384369
H         5.42672111787865    0.36934259401947   14.46395817784732

