48
CSD_code = YUHKIV | q = 0 | S = 0 | Stoichiometry = C19H26Cl2Ti | MND = 12
Ti        4.21991868776025    2.69872218806662    2.12714640857641
Cl        4.22514147764793    0.82309585957901    3.30162948715879
Cl        4.21954806542396    4.00002930766900    3.90626184754981
C         3.09279662057958    2.80943288202277    0.14316124966923
C         2.58277080956935    1.70771221234688    0.87195532952779
C         1.86084759395244    2.19835700968300    1.99318737171948
C         1.95854054755409    3.60246329612862    1.97336625557902
C         2.74283435633295    3.98047656402647    0.86670662405082
C         4.22016735150219    2.74593307259329   -0.87374459837005
C         4.22027888291791    3.92770335904730   -1.84682199917010
C         4.22016899631031    1.44537554954924   -1.68001186041278
C         1.03360469542420    1.36916416191611    2.93526541032522
C        -0.40858970725000    1.30926820580107    2.41580997017186
C         1.07270134585294    1.93027176491766    4.35749185380410
H         2.60760931924104    0.66613027836538    0.57600388318372
H         1.46991776241107    4.28692884036502    2.65255377651263
H         2.90533042361442    5.00365865239666    0.55489416190766
H         4.22028575033370    4.88315026677139   -1.33097096179729
H         3.33667130471474    3.88339052592739   -2.48019041044056
H         4.22008525319138    0.56937084851549   -1.03676096134322
H         5.10361352359913    1.40464116630715   -2.31393812940539
H         1.44194250543003    0.35100252698077    2.95019805171800
H        -0.43744133323742    0.88318971182702    1.41543468633279
H        -0.83618666402463    2.30883918716787    2.37658543561845
H        -1.01905441013388    0.69546604978299    3.07358149349342
H         2.10476710197554    2.06778336063664    4.68181045393925
H         0.58301137184566    1.24346201623782    5.04367330225815
H         0.56013621406424    2.88803947666385    4.40980734743662
C         5.34737922579628    2.80918315336063    0.14334339286041
C         5.85702958824661    1.70739283482356    0.87233738073999
C         6.57898505365451    2.19803484743210    1.99355789852878
C         6.48162135170242    3.60217685582171    1.97351585981740
C         5.69750935118936    3.98022240592343    0.86677612406327
H         5.10392552006614    3.88333280289823   -2.48013467107054
H         3.33677517342761    1.40475471990060   -2.31401295131047
H         5.83241032614263    0.66585167236727    0.57620123667696
C         7.40682764738344    1.36905265433967    2.93534538286427
H         6.97048840132315    4.28661989026835    2.65254801946473
H         5.53526399976126    5.00340357322235    0.55483951953432
C         8.84904226993447    1.30941701995055    2.41585238749813
C         7.36779609419983    1.93040462916190    4.35762258548177
H         6.99878237535475    0.35068572437880    2.95029486308964
H         8.87803830944508    0.88361936552841    1.41537393582332
H         9.27647475099826    2.30911008863494    2.37697572562583
H         9.45955491895966    0.69553265467508    3.07350120120335
H         6.33516650846845    2.06952271600406    4.68126350324725
H         7.85576654447601    1.24233843485378    5.04400581941080
H         7.88224474286741    2.88768561516389    4.41040730685483

