31
CSD_code = YUHKUH | q = 0 | S = 0 | Stoichiometry = C16H10CrO4 | MND = 8
Cr        2.31912714135813    1.61553049731772    6.67538022315327
O         0.07638197839415    3.27077615469996    5.58066116276304
O         4.36490917843344   -0.46141315180000    7.36052371503518
O         0.49273191025055   -0.70468562675796    6.22780331475790
O         3.00694119164997    1.04495380447145    3.82456466423207
C         2.04639607034855    4.06839338744058    8.17730605238984
C         2.81050517015765    4.58125675797571    9.37299984650369
C         3.81375482073864    3.70988376590922    9.78847276637511
C         3.89523464829401    2.46340137620213    8.94240779283302
C         4.04261945969618    2.89974752058571    7.49339400255423
C         3.05710307517535    3.75537600684618    7.08563420650862
C         1.52664552587557    2.68169800041069    8.52607475084198
C         2.51496243415233    1.82387846335290    8.93510616437927
C         4.60880178657870    4.02226013918367   10.87264459536542
C         4.39273628720454    5.21888204154428   11.54142440515548
C         3.39577817606856    6.08543566065486   11.12796214816144
C         2.59595383127910    5.77143215495633   10.03826239907460
C         0.94888101104169    2.67787435787323    6.02985470643806
C         3.60625667470191    0.36752542280121    7.13224476215953
C         1.17380127620796    0.19356035737133    6.46366560814159
C         2.78754391968430    1.31650942176890    4.92170914441888
H         1.26184261419930    4.75563674941961    7.85607238320771
H         4.68418868047138    1.78492063342952    9.27158118593335
H         5.00103885120745    2.81692951610781    6.99709283917370
H         3.15779985281091    4.41636293654030    6.23404290939308
H         0.48331198193316    2.54673294258612    8.78211519867564
H         2.32353724375702    0.94882464650450    9.54350029656679
H         5.38681989182062    3.34592504531375   11.19563345158759
H         5.00822549305814    5.47450015866013   12.39063731587914
H         3.23750734363353    7.01329883945578   11.65679953016385
H         1.81756247981733    6.44759201917458    9.71582845817730

