53
CSD_code = YUHKOB | q = 0 | S = 0 | Stoichiometry = C23H26Cl2OTi | MND = 12
Ti        5.48420609240803   -0.03850895363531    3.83291191657437
Cl        3.77724514245981    1.27446927525951    3.18530162147338
Cl        6.85564004210139    1.64714943740051    3.38956397552634
C         8.39210173803245   -1.53579719774645    2.38477793420794
C         9.03980624006706   -0.38910057981926    1.58690212481419
C        10.54610870334762   -0.59541126445127    1.45415443893908
C        10.83399563891561   -1.89087076061500    0.70199569420413
C        10.16937532588282   -3.06703096926048    1.40920920035223
C         8.67118524641446   -2.82261114951734    1.57040373582865
C         6.88268241660646   -1.38475949327862    2.45280653913941
C         6.04962103524199   -0.63135192420543    1.58034734976272
C         4.71446100230635   -1.02642645452918    1.78292605551046
C         4.69139738943476   -1.98792875195355    2.81227975736603
C         6.03039696914349   -2.22812766933963    3.20413278511412
C         8.93135615559218   -1.62279630663291    3.80865786615374
C         9.27335929794879   -0.46917696393237    4.51646363930807
C         9.75110503714862   -0.53377643854747    5.80818183803676
C         9.89601061858800   -1.75903461428252    6.45894828241780
C         9.54097556915554   -2.91414661574742    5.77524558839932
C         9.06910643779396   -2.83546944694641    4.47345252922023
C        10.54638528184466   -2.91980299600937    8.43148521887609
O        10.37616074008737   -1.71176127570566    7.73244342162763
C         6.20356220651714   -0.99494494641664    5.87676650828652
C         6.31412132171188    0.40303509602967    6.00810524548632
C         4.83077801173984   -1.31189428532492    5.74449410827800
C         4.10106852223167   -0.11189216276884    5.77137037791624
C         5.01739217259844    0.95250140878340    5.92811875634887
H         8.60837328428460   -0.38506221280425    0.58359139922792
H         8.82008711065733    0.57616015411269    2.04009173849061
H        10.98254801934507    0.24918698390716    0.91744163829367
H        11.00402467317154   -0.63755787573033    2.44399460675959
H        11.91110008271319   -2.05686969538851    0.63698537797003
H        10.44571956699153   -1.81308063209117   -0.31656028674585
H        10.32725161484730   -3.98389646602167    0.83668450128254
H        10.62826766193969   -3.19946665989764    2.39059562944562
H         8.21953920405549   -2.69688473760014    0.58331198389162
H         8.18973356082962   -3.68727601708944    2.02816380550016
H         6.37783115791186    0.06605701757429    0.82125747383464
H         3.86368394499317   -0.69586790798257    1.20188126193108
H         3.82323200227800   -2.55804571235471    3.11938488480452
H         6.35618864635121   -3.02300330779878    3.86036675748703
H         9.17421116542077    0.50246090154449    4.06059649088042
H        10.02820301324956    0.36251208409009    6.34072746047137
H         9.62975487106705   -3.88555680879972    6.23702582713122
H         8.81379456612439   -3.76413360722517    3.98707332601664
H        10.93781145616237   -2.64252008986262    9.40887347883918
H        11.26264135651516   -3.57843270872501    7.92926432186398
H         9.59573541683802   -3.44790995195400    8.56107624787387
H         7.00871968148671   -1.70098247584125    6.02177605288002
H         7.22150929700514    0.94892475502638    6.22870805494411
H         4.40784919011391   -2.30784906440436    5.75644756733414
H         3.02303967006602   -0.02037448889995    5.76154030213737
H         4.76054543026967    1.99743452739816    6.05295358828434

