64
CSD_code = YUHNOF | q = 1 | S = 0 | Stoichiometry = C26H28N5O3SZn(1+) | MND = 6
C         4.66962700077906    2.40849551817007   11.29914649410942
C         3.63624890615577    2.39378253896577   12.25340704325377
H         3.32405953654257    3.32447625364859   12.69158292065991
C         3.09018149790472    1.20890068142474   12.66838040817387
H         2.31017201595928    1.21198287967832   13.41413769926545
C         3.53784241759297   -0.01431045562008   12.14693140052274
H         3.08946424043501   -0.93451151605686   12.48710956491341
C         4.55013831048222   -0.03574887273349   11.22876777263655
H         4.92129862249851   -0.96831422338782   10.83174701172097
C         5.14354729128726    1.16554239845361   10.79090179979459
C         6.21062378195898    1.18912033741732    9.87259669377939
H         6.59412213204068    0.26072887677098    9.47702606205961
C         6.74776173327834    2.39105844026941    9.50525823778147
H         7.57724847739124    2.44712886378383    8.81844127881159
C         6.21016994125324    3.57721344257735   10.03515352048899
C         6.83450549382332    4.88936115766150    9.66677335778255
H         7.57477942968281    5.11072416416942   10.44206050507118
H         7.36545942238581    4.79871251226545    8.70928999949484
C         5.01360230802883    5.88587856505780    8.44866270257522
H         5.48864852424523    5.27509140929525    7.67249662237373
H         4.87812643907435    6.88169124862354    8.02520432833259
C         3.64688151982845    5.26846445350614    8.77041454746343
H         2.97939466395070    5.40171086158241    7.90805556752468
H         3.77075212064679    4.19863792908025    8.93559648974246
C         6.56248385791598    7.26575420255225    9.72301755282297
H         7.12841660515740    7.46583767671390    8.80208511452361
H         7.26311093714452    7.19567505920459   10.55618055153835
C         5.64737812800599    8.45113168117611    9.99768063438389
H         4.97151257333611    8.67918387866052    9.17776001042187
H         6.26354966213916    9.32914322809554   10.18876457773317
C         2.93219550439879    8.23164991247540   10.84130670684542
H         2.31397309097130    8.06875162243696   11.72173225734047
H         2.74401984933582    9.23916987465148   10.47012872325881
C         2.62206408270079    7.22371952990592    9.73706179635674
H         1.53447855017539    7.23803970324982    9.58260066267680
H         3.07376334832111    7.58223901652345    8.81180503586380
C         2.03247355376738    5.03236797548553   10.56786855254507
H         2.31177281588793    3.97875960472839   10.46944933983094
H         1.07215882164584    5.17084809463260   10.05024472483776
C         1.85978797064574    5.31629548598010   12.03510356025343
C         0.63721277486012    5.03709400516165   12.66597033896872
H        -0.18253684852409    4.64143074204658   12.08744896609716
C         0.52200832141360    5.25078762193738   14.01362805469545
H        -0.39214923913956    5.01516843448343   14.53769768123544
C         1.60403074022261    5.80615777599326   14.72242794742105
C         2.79617280247075    6.09740115593374   13.99920205432725
C         3.85890696118724    6.73181419516307   14.66682487082934
H         4.73541096623465    7.01551996320415   14.10626873513235
C         3.76802712852778    7.00544234232362   16.00459065974775
H         4.59006118985006    7.48677093953349   16.51104944243783
C         2.61398114951014    6.67070019307755   16.73125297492132
H         2.57187412456065    6.88584090369296   17.78752439616576
C         1.54652941164737    6.09429952523602   16.10137563451940
H         0.64326658627509    5.85600434528722   16.64239040729510
N         6.45851610789978    5.00774352542746   13.40333348213547
N         2.90177710927960    5.79055852617438   12.68177156929735
N         3.08345401359820    5.85518333801757    9.98403980609744
N         5.86572169058426    5.97978160497287    9.63747914803427
N         5.20385052938489    3.58840114307731   10.88382181329539
O         6.61831120030257    5.82547831785762   12.45712223647723
O         5.32962404143691    4.51649947967335   13.50956295025745
O         7.35981634350171    4.73626242278487   14.13542403824388
S         4.63393676653404    8.19347857953767   11.49579455683315
Zn        4.74720094960051    5.56289690832622   11.60806640596942

