74
CSD_code = YUHPOG | q = 0 | S = 0 | Stoichiometry = C37H33As2ClPt | MND = 4
Pt       -0.57934526177705    7.61170452223144    5.63451370912712
As        0.09833406125838    8.50095453751448    3.56297756915016
As       -0.97991699069077    7.43869316572224    7.93503046237866
Cl       -0.83844709997260    9.95570058751928    6.24797828910484
C        -0.27265789903046    5.63051214540065    5.14305142025807
H         0.56653364333242    5.53581479447035    4.44253062070830
H        -1.16094297112526    5.23047015022654    4.64360665689986
H        -0.06195145898616    5.00427855715127    6.01570891534952
C         0.77892747210201    7.38729272861069    2.11788231339867
C        -0.15385574558280    6.67015442898206    1.37554182909541
H        -1.20781704057727    6.77406888030722    1.62250181091106
C         0.25368638828179    5.84557728203437    0.34412091177477
H        -0.47559417347570    5.29479309060089   -0.23239628235822
C         1.60358600256451    5.72378078589551    0.05231882552513
H         1.92559495287578    5.07954686818254   -0.75266176346645
C         2.53910237108349    6.42307306198019    0.79531484534985
H         3.59149505727061    6.32360404535614    0.57030921296061
C         2.12885849018842    7.25082253365899    1.82765832330079
H         2.86003882058031    7.79868490821963    2.41364593391139
C        -0.93435152296783    9.77378479418713    2.52579270151167
C        -0.51630843233148   10.15182063034005    1.25430082943007
H         0.38664227859319    9.71775439862402    0.83408826543859
C        -1.25340207318875   11.06639792801941    0.52340002417162
H        -0.92238278703744   11.36132387727871   -0.46245473879956
C        -2.41541906129024   11.60257967185199    1.05501918227891
H        -2.98867990980738   12.31754259876035    0.48280660755846
C        -2.84255746436753   11.21957997425180    2.31533038059480
H        -3.75080266719485   11.63477834554847    2.72760831365300
C        -2.10574354800220   10.30503950355284    3.04842901773002
H        -2.42092666461419   10.00848377621863    4.04257308474454
C         1.68323349270161    9.45182746283959    4.13445996628981
C         2.16677447313083   10.60291893671116    3.53088389905336
H         1.65524687405004   11.01400602803730    2.66730016340434
C         3.28569983312304   11.23675177942340    4.04578064898674
H         3.65711891103014   12.13743178823142    3.57760422954023
C         3.91985503273573   10.72821868541825    5.16657387138128
H         4.78472066530780   11.23303727699328    5.57197963149333
C         3.43916981206148    9.58023188369584    5.77684906913234
H         3.92371363012476    9.19157393095132    6.66100013691548
C         2.32716299481146    8.94421138701115    5.25890024741757
H         1.92293090846753    8.04690603036608    5.73828586833174
C        -1.08094867220802    5.76403442317978    8.92607499440998
C        -0.47258849633783    5.54205177378802   10.15252073391523
H         0.15336490816368    6.31269628746563   10.59100734983386
C        -0.66084261636064    4.33953442619425   10.81379470628140
H        -0.18411744504100    4.16991359023836   11.76888940953867
C        -1.45960522588993    3.35660265759578   10.25481698586120
H        -1.60320117790809    2.41961243467889   10.77271531295004
C        -2.07522616738209    3.57411909361640    9.03206095351404
H        -2.69979335934527    2.80707379920996    8.59728690945003
C        -1.88478308587562    4.77378069318132    8.37256755343140
H        -2.35527276196053    4.96596862390098    7.41117440096487
C        -2.71968382582556    8.12306892158406    8.40746418129314
C        -3.09559870866912    8.32288903900396    9.72944143636247
H        -2.38311904776562    8.12315180885132   10.52505530093905
C        -4.37115271956341    8.77126069375138   10.02412929409417
H        -4.66240220428402    8.93623268526393   11.05195189851264
C        -5.27586974892146    9.00808049985038    9.00132691768734
H        -6.26981975930862    9.36117502112924    9.23496657536020
C        -4.91127087193286    8.79005942474673    7.68265457159305
H        -5.62218183874208    8.96859167298330    6.88866113694499
C        -3.63528488895582    8.34470075498730    7.38758280653260
H        -3.31939754464078    8.17233688135416    6.35911967898719
C         0.34421433874752    8.43336606065675    8.92443623189861
C         1.63897500725702    7.92151648804468    8.92167045056571
H         1.82424364694555    6.96625872512716    8.43285426597322
C         2.66756598657617    8.61846373985435    9.52827251657589
H         3.67126635872303    8.21620025529179    9.52767995066879
C         2.40861736678060    9.83805098768866   10.13343457406679
H         3.21107371466258   10.38788950407695   10.60346517795783
C         1.12522662488488   10.35771123756367   10.12687220007882
H         0.92855790843839   11.31523972255620   10.58756573111612
C         0.09369072025202    9.65985321690668    9.52152064336164
H        -0.90635980885397   10.07638709308415    9.48672014751244

