37
CSD_code = YUHPAS | q = 0 | S = 0 | Stoichiometry = C12H20Cl2PtS2 | MND = 4
Pt        0.00001610391920    0.00038259687888   -0.00074165998833
Cl        1.91445066430532    0.13859572172927    1.29678245127000
S         1.31974002739495   -0.18701372736822   -1.92121069569206
C         2.56888422557071   -1.46989378228599   -1.53859524953601
C         1.74239134437455   -2.61020953588161   -0.95709331141494
C         0.47778096777008   -2.69312065475189   -1.83562046731675
C         0.62926763029770   -1.58930568085086   -2.87514590356234
C         1.78948332687629   -1.91208522755386   -3.81171534894434
C         3.05818990603273   -1.84041176060831   -2.93542538364876
H         3.33803009350991   -1.09106279280182   -0.87120576926257
H         2.31599514771566   -3.53778549377052   -0.97358017396883
H         1.48383819495725   -2.38936353275084    0.08146981431519
H         0.38309160951866   -3.66171843644676   -2.32819130954061
H        -0.42369620320899   -2.52442708999779   -1.24228309847271
H        -0.29672862583429   -1.31573960165564   -3.37332939376559
H         1.65445473160927   -2.89894882586411   -4.25482765307800
H         1.83677322748468   -1.18365420267801   -4.62149616447080
H         3.74572251728784   -1.08204948324956   -3.31046196356944
H         3.58948805916926   -2.79199850940830   -2.90845073900653
Cl       -1.91467989453873   -0.13811429331339   -1.29699123083220
S        -1.31905013475157    0.18724390569419    1.92045374089960
C        -2.56864514524708    1.46988163987273    1.53840005391768
C        -0.62910302839158    1.58937677170689    2.87500246369673
C        -1.74259447780801    2.61075973972436    0.95739371194070
C        -3.05808776582359    1.83965049706152    2.93539561511785
H        -3.33770838273277    1.09115174317279    0.87085596470754
C        -0.47799437274896    2.69365847304433    1.83592405638907
C        -1.78940922723068    1.91142099882477    3.81171813996141
H         0.29698185021576    1.31587168647994    3.37304095439456
H        -2.31650215218006    3.53814606570885    0.97436147840916
H        -1.48404098846570    2.39047466680633   -0.08127310399159
H        -3.74530945564925    1.08084973020178    3.31011413176932
H        -3.58976835191712    2.79103895539187    2.90890823661975
H        -0.38359944707897    3.66206823131346    2.32892424284108
H         0.42350565373875    2.52553272964801    1.24247732134051
H        -1.65471944621316    2.89815588781478    4.25521998426068
H        -1.83644818192599    1.18264259016263    4.62119625821341

