55
CSD_code = YUHPUM | q = 1 | S = 0 | Stoichiometry = C20H24N7NiO3(1+) | MND = 6
Ni        2.94820713630910    1.01006942941804    8.41664260391289
O         3.76189238219518    1.86139264067112    6.61002032894235
O         2.19922950006686    0.48645066375521    6.18844202350795
O         3.38811121574566    1.27598783193583    4.58612329559528
N         1.87053125672296   -0.28938733430828    9.42176096582763
N         0.09680821651707   -1.59167440540887    9.59599515815090
N         1.48909617209567    2.32291994550757    8.42494920035380
N         4.08757656306299    2.67463505012437    9.46188411524687
N         6.53798131325793   -0.75246303870536    8.27987712417483
N         4.43696093902452   -0.09665981482725    8.36347901207608
N         3.12075005524600    1.19214481178550    5.74786846756467
C         2.19767779336542   -1.33780429734037   10.25608304917064
C         3.36289104591894   -1.63163411040781   10.95592770496992
C         3.37271987127440   -2.77323804212977   11.72861918003221
C         2.25735347567025   -3.60942260540062   11.81940304678054
C         1.08665310136041   -3.32689065438522   11.14613261148810
C         1.07278188389916   -2.17996436080340   10.36803773823270
C         0.61804122450756   -0.47356428229284    9.04924852446708
C        -0.14308549474581    0.47026728688711    8.18833675060454
C         0.10274415443827    1.90816387163278    8.66310027736042
C         1.83911897468287    3.52885066129312    9.19296453933528
C         3.32334889550517    3.84352192767336    9.02217421801523
C         5.49416287178556    2.70554782849467    9.07568514003720
C         6.17033156849063    1.38841213312146    9.46409891845747
C         5.68093895043086    0.20848125974037    8.68913983886083
C         5.81763312198908   -1.73363585361997    7.64136749101209
C         6.19024645382197   -2.92164980708754    7.03139834669141
C         5.18081423340673   -3.67725660869094    6.47266593435559
C         3.84745098737655   -3.26165693610434    6.51775871757843
C         3.47156458488699   -2.08280321316136    7.12458787346214
C         4.47700649192757   -1.30713312907945    7.69616349660993
H         4.22059241868506   -0.98114699656000   10.89602867786655
H         4.26128232550046   -3.03026147246376   12.28372334733660
H         2.31292630167478   -4.49168659967691   12.43687037434281
H         0.22097996795065   -3.96466121519983   11.22410977329807
H        -0.83331962015758   -1.94884484473930    9.44578876615522
H        -1.20787949176804    0.24188341574462    8.22669949021417
H         0.20335864281347    0.36821487400400    7.15425408011785
H        -0.59187083055783    2.58154270884073    8.14764292724580
H        -0.09623156950161    1.96865631070730    9.73777713013236
H         1.56625885646229    2.56804821558098    7.43301232178410
H         1.62852995364682    3.33282265324975   10.24937270439279
H         1.23098205942360    4.38340015074699    8.87260145576858
H         3.54882328839456    4.00932878038036    7.96548630853775
H         3.58295287296749    4.75134697971312    9.58288701923338
H         4.02946339715335    2.61171795509687   10.47962321995579
H         6.02962109584117    3.53672353071461    9.55590355569762
H         5.53937030587471    2.83272849930742    7.99175190962782
H         7.24611764015949    1.48158989265917    9.30872035060247
H         6.00323760619796    1.20222499090688   10.53115539710590
H         7.53900410001897   -0.74006012800186    8.39571363055837
H         7.22157224652317   -3.23312434274869    6.99155733659490
H         5.42472014256367   -4.60592697162520    5.98175670725103
H         3.09462653017874   -3.88009611119367    6.05515358938313
H         2.44634281972180   -1.74882712372528    7.12377423393053

