82
CSD_code = YUHREY | q = 1 | S = 0 | Stoichiometry = C38H39N2O2Pd(1+) | MND = 5
Pd        0.22474276881250   14.82051446737603   16.56297660030136
N        -1.34807349261280   16.21425508171323   17.20884426391101
C        -1.06258906122662   17.45901562056116   17.19971001183714
C         0.07943530984094   18.09649454491028   16.43988094001784
C         0.07231673976799   17.61807802627926   14.97730784936799
C        -0.01472477163387   19.61949621672432   16.50289018234588
C         1.34309372651539   17.60937284046301   17.10857292769455
N         1.62554777020994   16.38176531637986   17.29597012411144
O        -1.81166270683851   18.25446401511576   17.95326665327316
C        -2.76800815041125   17.43272700152744   18.62479515184381
C        -2.53776554229330   16.02410190019578   18.03018968019759
C        -3.72288022286232   15.52335278029215   17.18197606725191
C        -4.16787577507369   16.55163363887423   16.18161708805911
C        -3.40651551798223   16.78631483755603   15.04402454205287
C        -3.78062445299084   17.75837678246684   14.13424431902358
C        -4.92182592405002   18.51171106112060   14.35303845029557
C        -5.68989873270079   18.28168453255342   15.48122042077443
C        -5.31410541884664   17.30813458786944   16.39102497272319
O         2.22386538110725   18.50244436310652   17.54384323090691
C         3.31895285818623   17.77708431627152   18.11008109773818
C         2.87504004113988   16.29618096242535   18.03559962190429
C         2.63617645843663   15.66296044427463   19.41990044383601
C         1.94801933276214   14.33213469008761   19.28020180326038
C         0.55256813724499   14.27916541135608   19.19946470937829
C        -0.09900672031805   13.05467359060322   19.05416270484958
C         0.64088387888754   11.88075137852909   19.00388812091052
C         2.02281364573651   11.93015967455378   19.10153443353475
C         2.67235422528807   13.14812733837982   19.22950679452536
C        -0.71051341192356   13.14876087507783   15.57578217407711
C         0.54519238235206   13.44195802213458   15.00494721481185
C         1.66095606575540   13.42738161263157   15.86292283392370
C         2.96369802957880   13.95993731032447   15.47410065096033
C         4.13394982486071   13.39413745927182   15.98705232175957
C         5.37179365581067   13.91046104670635   15.65281393641880
C         5.46510674717460   15.00834977275984   14.81213682752096
C         4.31187423358804   15.58531243876880   14.30183364517615
C         3.07313312950834   15.06742044287509   14.62553059093567
C        -1.96851187817511   13.24438657992017   14.84136263592768
C        -2.11183727128133   14.01427687638433   13.68131591026598
C        -3.31793031557226   14.05930849060259   13.00956975605747
C        -4.40937554079077   13.34785852185966   13.48106598656834
C        -4.28711205014098   12.58435706159937   14.63100090720685
C        -3.08217194640415   12.53342992582874   15.30421809136692
H         0.95864927741777   17.99135807062764   14.46834554354020
H        -0.81089273280111   18.00693598410158   14.47652145314261
H         0.05671936585443   16.51536602260785   14.93485032958163
H         0.81528193516217   20.06353171437462   15.96061250730707
H         0.01762099950675   19.96952335427605   17.53051729995154
H        -0.94883012264195   19.94885845169064   16.05608830862964
H        -2.57331119213256   17.48654772076005   19.69928406234488
H        -3.76383916618961   17.82539078706700   18.41296746438675
H        -2.32832524190662   15.27916309166814   18.80500384049898
H        -4.54115765777502   15.27536417867684   17.85916703540424
H        -3.40546652215383   14.61366681266358   16.66799675658594
H        -2.52530230899195   16.18422490937355   14.87253906604232
H        -3.18742341744409   17.92545450623673   13.24653579723122
H        -5.21539002197550   19.27001255908931   13.64357041559268
H        -6.58477605204408   18.85992259032619   15.65347137296118
H        -5.92678352446227   17.12542746293035   17.26301752050514
H         3.47425067261780   18.12823209307373   19.13218620412746
H         4.21172641278476   17.98411298431977   17.51556218619137
H         3.58287182552327   15.67759182571714   17.47504425586168
H         2.01487171976582   16.33838327234418   20.01351037172124
H         3.60058263159802   15.54687574289087   19.91502655890826
H        -0.02064196022858   15.18326232051815   19.38860559838579
H        -1.18253566649758   13.01322632130654   19.04646770252849
H         0.14078490447444   10.92802521206677   18.91149367523492
H         2.59556778526470   11.01502942838237   19.08640473116602
H         3.74883834308281   13.17833404414487   19.31254475681603
H        -0.72415873774115   12.42962289417149   16.40105597848441
H         0.63090131244430   13.81612011020728   13.98751809774887
H         1.68625712220045   12.67077674504499   16.65114651713993
H         4.06339613708993   12.53688576800589   16.64027955219072
H         6.26753700090711   13.45708034893776   16.04900841815317
H         6.43166231398717   15.41308598401484   14.55521906686525
H         4.38317120242781   16.44128225290619   13.64738776727602
H         2.17764801026377   15.53573919297337   14.23220767014028
H        -1.27700122112424   14.58866858335622   13.30207498484454
H        -3.41039914073940   14.65638489793040   12.11529324900023
H        -5.34976976633502   13.38774432841907   12.95442575684053
H        -5.13269261844409   12.02568734776202   15.00180373714626
H        -2.99014733918803   11.92908822673054   16.19615770062604

