56
CSD_code = YUHRUP | q = 0 | S = 0 | Stoichiometry = C19H27ClN5OReS2 | MND = 5
Re        2.58042372801309    2.75228505915161    3.33321095392891
O         2.12608020439995    2.01323452756658    1.92666528466235
Cl        3.02879509310388    2.78493831435564    5.41515320597573
S         4.92502931894145    1.95692987587381    2.93965687380847
C         5.32396877959125    3.14014424201380    1.74101718521668
N         5.10414659614335    4.42663944557525    1.90017022583025
C         4.17320669201085    5.12804098824196    2.48410375109282
N         2.94183573357757    4.69170618933346    2.81037666465162
N         1.96358501448854    5.61042709967672    2.77282883426799
C         0.76597083346723    5.28849378598483    3.15349129545391
S         0.36924521004421    3.69638642856686    3.79401022550778
C         4.49802762236006    6.55013377687333    2.71084247183138
C         4.10305402220296    7.17523135219584    3.88997360890991
H         3.54226657624915    6.62249362478455    4.62871558897724
C         4.45018456970915    8.49280460015794    4.12518683340953
H         4.14826836671979    8.97073339991464    5.04550418179331
C         5.18331718735833    9.19835644328324    3.18489642382292
H         5.44616558219451   10.22955389917422    3.36814190617189
C         5.58222062923245    8.57757576189491    2.01236226305965
H         6.15673569224423    9.12512621105000    1.27999196542852
C         5.24909025265914    7.25680176626714    1.77696818560968
H         5.55372599430037    6.76403635364336    0.86772746153361
N         6.03375501501800    2.76203100888969    0.67399120235136
C         6.44085924007445    1.38683173067822    0.48896270421210
H         6.56886049845659    1.21299855001439   -0.58161605896671
H         5.63542966077617    0.74316300205790    0.85427649941481
C         7.72786334495694    1.04495997295353    1.23507968390401
H         7.95562971487529   -0.00876640233426    1.10203056060252
H         7.60226954851437    1.24177452903417    2.29594592830502
H         8.56382454917443    1.63121317479190    0.86322270622851
C         6.42829042717024    3.76001065058343   -0.30255508341716
H         6.62188315030550    3.24995226236989   -1.24817594053840
H         5.59044185854571    4.44792465858358   -0.44299271178712
C         7.66313098412418    4.54419134518676    0.13469422443254
H         7.88062906412137    5.32223791596403   -0.59213079671198
H         8.52867221265329    3.89269745509934    0.21257218431367
H         7.48201571888311    5.00444227168293    1.10158650596468
N        -0.22350119283217    6.18845880155793    3.02489847465113
C        -1.54324127209581    5.95677393123365    3.55639718911520
H        -1.78240840789617    4.89675200069308    3.44324417324776
H        -2.24891829484691    6.53963032745458    2.95811846854542
C        -1.66233956396732    6.34993369027232    5.03037390843985
H        -1.05325747153079    5.66700540414149    5.62470045364377
H        -2.70251562597470    6.22098554677326    5.33426257516474
C        -1.22135449630134    7.78765371927784    5.30431669828000
H        -1.78054236225357    8.47745167950824    4.66888615403120
H        -1.47336864826622    8.02199683146828    6.34078386626962
C         0.28334793991843    7.99682618536878    5.10215730171430
H         0.63612562446167    8.77127072081075    5.78694813035546
H         0.80530149310187    7.07435887540296    5.36284252387871
C         0.68178200324735    8.41938715312735    3.68713359560264
H         0.35669847439547    9.44621065061449    3.50955828555773
H         1.76954692469132    8.39677529251079    3.61938856993861
C         0.09126232722134    7.52542191088815    2.58139897548577
H        -0.83433208930970    7.96151043512125    2.20051255907825
H         0.80721595157023    7.44816157265408    1.76039109774519

