50
CSD_code = YUHROJ | q = 0 | S = 0 | Stoichiometry = C17H23ClN5OReS2 | MND = 5
Re       -4.81788027488828   -2.02404439000448   -6.24794333264011
Cl       -5.71032623106530   -1.50301227748545   -8.23134824861946
S        -6.12690024002519   -3.99099024246218   -6.52348193871357
S        -2.91818841573978   -0.89523720249242   -7.04492700954077
O        -5.51016115930463   -1.17395479328468   -4.98672002856255
N        -4.58778910918751   -4.96315939059298   -4.50934751526251
N        -3.36850293941549   -3.10075562323046   -5.30384443595681
N        -5.93410372775342   -6.44239914294283   -5.56101201048706
N        -2.10242829647863   -2.63082050093078   -5.18197583802658
N        -0.52187480071111   -1.14452301202417   -5.89008360065180
C        -5.46184903007725   -5.19531979088643   -5.45658796289888
C        -3.71969382759374   -3.98948708941983   -4.35997227413131
C        -1.76206353423720   -1.63330382119899   -5.92541913971794
C        -3.02122336389893   -3.97012713399281   -3.06209139930633
C        -2.76394242974371   -2.75256732081216   -2.43690231296025
H        -3.07293540842573   -1.83434667449953   -2.91413128738925
C        -2.14856300344648   -2.72917372914669   -1.20028205941778
H        -1.95799196314880   -1.78406383403891   -0.71382066890677
C        -1.78220242785514   -3.91370474130145   -0.58071465491271
H        -1.29691235594741   -3.89120970839783    0.38395864977088
C        -2.04625093884448   -5.12644016162965   -1.19561962867296
H        -1.76676006067581   -6.05029878166228   -0.71068651816623
C        -2.66985219211037   -5.15779983781972   -2.42915822581561
H        -2.87804273674504   -6.09649153807894   -2.91840269745677
C        -5.41992080092783   -7.47261272570653   -4.67969005020380
H        -6.19162290393052   -8.23594346433221   -4.56537394992633
H        -5.21960339933003   -7.01478207154000   -3.70856381309333
C        -4.13871888590126   -8.09172444974521   -5.23180895970659
H        -3.77727524916564   -8.86349540340041   -4.55785986709916
H        -3.37256364788960   -7.32763417399239   -5.33325627352421
H        -4.31584998449135   -8.53733097811353   -6.20799375068001
C        -6.95983573966665   -6.80857875618555   -6.51221846194097
H        -6.82874388828495   -6.21579353443030   -7.42073832614328
H        -6.82334323668520   -7.86317231746477   -6.76239980632715
C        -8.35932712610107   -6.57411923111773   -5.94989951554382
H        -9.10523642363745   -6.87694772549764   -6.67886513995085
H        -8.49786737596341   -5.51989769739926   -5.72797336587618
H        -8.50808099737871   -7.14590925384317   -5.03688043405684
C         0.50593116904768   -1.69644506177873   -5.03128209078301
H         0.48044337343239   -2.78684609230409   -5.07179678786632
H         0.32671506549709   -1.39256818273365   -3.99348130480976
C         1.79113058894271   -1.08636257679618   -5.58327096657593
H         2.16709466275753   -1.68983219229664   -6.40984842878312
H         2.56860822309632   -1.00497109732452   -4.82736943440930
C         1.32248940857647    0.27396266516299   -6.09953000608256
H         1.21902539049469    0.97151533948370   -5.26821059005238
H         2.00041020853535    0.70308181784243   -6.83351588947071
C        -0.04903293945976   -0.03877464872092   -6.69408299805835
H        -0.74169254617142    0.80431488214153   -6.63721786513217
H         0.02910552192323   -0.34410233158253   -7.74475778546242

