89
CSD_code = YUHSEA | q = 0 | S = 0 | Stoichiometry = C37H42N6PReS2 | MND = 5
Re       -0.36796226954532   14.46223003904380   15.82445419803933
N        -0.91219459998694   14.52189202469999   17.46420859154889
S        -2.36560059617027   14.60380630254389   14.45757781552738
C        -2.60972240699273   16.28818814955221   14.11031098851070
N        -2.06968068676835   17.28607780172245   14.74794615429481
C        -0.97730384180949   17.37017054344149   15.48974704000564
N         0.01014454824129   16.47840936322389   15.50762843190486
N         1.23548851195627   17.00625818155105   15.80848035867421
C         2.22384908600147   16.20342650466844   15.96764120824388
S         2.01817872244035   14.43968569425320   15.91896541598644
C        -0.83886725099106   18.63372362036987   16.23950261200369
C        -1.15403764184191   19.85902062875852   15.66562054996294
H        -1.46871705011196   19.89517659938219   14.63352619008789
C        -1.05023271007613   21.01800855062536   16.41288796525552
H        -1.28557174553838   21.97179901116730   15.96254050346359
C        -0.64928840178365   20.95806393151322   17.73746456993676
H        -0.57164628169114   21.86503224428790   18.31952573265813
C        -0.35484377071196   19.73448037735598   18.31775502377491
H        -0.05511335995325   19.68518408338008   19.35436984795238
C        -0.44463975869228   18.57331116023944   17.57304315158390
H        -0.23661678597617   17.60980623984632   18.01643632245910
N        -3.49988938930683   16.58811045789958   13.14334061454114
C        -3.68932525464996   17.98120704138390   12.79221506363123
H        -3.69918950514519   18.55586681532062   13.72291219035932
H        -4.65928437579704   18.07816626423021   12.30002608235769
C        -2.58442263398954   18.51859476215623   11.88512005938909
H        -2.75168462992241   19.57423171251978   11.68706784393846
H        -2.56244612340972   17.98745561154634   10.93664820421251
H        -1.61920874752761   18.40418277471725   12.37162520447244
C        -4.22372343261316   15.56577443827963   12.42374416853103
H        -5.15688870609751   16.00585195121028   12.06312121246457
H        -4.47037735462737   14.76071494640063   13.12202080431594
C        -3.43666232487038   14.98710837694778   11.24807516455476
H        -4.01556717198652   14.19916470230729   10.77361317591517
H        -2.49879474968072   14.56289296838058   11.59755935752945
H        -3.22083355702521   15.75392005906408   10.50830369648936
N         3.47872009565278   16.68203602505175   16.12066547869103
C         3.64607426224683   18.10745411765351   16.28197133561642
H         3.08934738465454   18.60085225053916   15.48119268482697
H         4.70960877084691   18.31736122332570   16.14551434213868
C         3.16330210962634   18.65507052264498   17.63807772946597
H         3.80674929581601   19.49245600090897   17.91670288350582
H         2.14745338638426   19.03401229770997   17.52528115721215
C         3.15367346852017   17.62045354968065   18.76412404908964
H         2.92985436971732   18.15146042046536   19.69202617170772
H         2.33907029834098   16.91339201199180   18.59554552344722
C         4.46347514730867   16.84238105491953   18.92732862992451
H         4.57545357170535   16.55706263092637   19.97583959484146
H         5.31152776520193   17.48142418510233   18.66968453698876
C         4.49907766849245   15.56431167971380   18.09086999265373
H         5.37534112052595   14.97018024390829   18.35953856181606
H         3.61012253560431   14.96896318939313   18.30957139594695
C         4.55028236841741   15.83407802129690   16.58546765851661
H         5.49225810832184   16.32572823217626   16.32515129552998
H         4.50155996679534   14.88326408300212   16.04755865670188
P        -0.39267759114223   12.11338110345700   15.41420911219449
C        -1.92866033653403   11.20331262991732   15.75040675634742
C        -2.14554515843297    9.92903014340213   15.23533036977892
H        -1.40821255203264    9.47082114502607   14.59028268512294
C        -3.31262438799458    9.25655557928598   15.54504130073113
H        -3.48688777792119    8.26931591413385   15.14188995756759
C        -4.25753206104169    9.84619379260285   16.37094624089641
H        -5.16834431978951    9.31559740920522   16.60729952501876
C        -4.03569278613678   11.11005258450196   16.89273925802610
H        -4.77084087492193   11.56677324006776   17.53816164976390
C        -2.87112198816759   11.79163762293065   16.58656283190569
H        -2.67443995594755   12.78319972717719   16.98065963235593
C        -0.05010569241736   11.84639658968576   13.65567218932990
C        -1.09469726197689   11.76399891340039   12.73824180836733
H        -2.11730797905013   11.76318891619467   13.09188379955193
C        -0.81671889916823   11.69942126935979   11.38520373146997
H        -1.62732615979081   11.63360036920781   10.67375796507494
C         0.49618981065884   11.73019623577506   10.94127960132813
H         0.70862985517410   11.68289985529630    9.88315713896900
C         1.53644179167331   11.83705843373155   11.85125860802686
H         2.55864059621897   11.87815336547881   11.50357912207093
C         1.26766297274474   11.90422132131266   13.20593918427192
H         2.07205219310277   12.01071635736625   13.92359460134364
C         0.82888838247930   11.11220676409945   16.31187027779787
C         1.36816407113184    9.93632669945969   15.80273459932786
H         1.10231052055698    9.59695896872341   14.81055443876883
C         2.26404301649732    9.20996924546019   16.56608473581112
H         2.69082567089575    8.29971420040334   16.16986769016777
C         2.61668851951852    9.64803750452513   17.83250155083249
H         3.32075405946305    9.07737796223849   18.42037371776004
C         2.07269743031128   10.81601097611214   18.34291727281014
H         2.35075739617725   11.15724480265374   19.32877237068703
C         1.17754861216075   11.54936184968653   17.58659990171659
H         0.74746543616523   12.47543283373505   17.95408918159652

