124
CSD_code = YUHVII | q = 0 | S = 0 | Stoichiometry = C46H70N4OSi2Zn | MND = 4
Zn        2.78932497460749    6.30968175249939   12.42859322470874
O         2.65175936827996    4.93196931820886   13.66978527697694
Si        5.67229578273096    5.71485384821632   12.17867194280065
Si        4.87215947415513    8.17351501329802   10.64765177381082
N         1.22147540215102    5.71977351118481   11.08333636176531
N         1.20652406139474    7.71655910609199   13.15796518500547
N        -0.58203678167110    7.33587105833693    8.38915415113941
N         4.44050455766797    6.78743318237370   11.57649427072225
C         1.59846882810758    4.16033544344741   13.81896069656891
C         1.31121304319464    3.52876334725019   15.05726403364541
C         0.08216216712826    2.91535370750050   15.23069066715066
H        -0.15367906711025    2.48552518920784   16.18836249026095
C        -0.86688622904210    2.83899706797675   14.22099999571618
C        -0.49828455278252    3.28780400954012   12.96246452247932
H        -1.17885245202570    3.16149644044297   12.12951364713323
C         0.71459896238927    3.91571561826485   12.74474098245149
C         2.36627720842452    3.51737957869131   16.16045651403714
C         1.98848996266531    2.60911095395410   17.34422582677858
H         2.81143131670936    2.60119922240695   18.05715693712888
H         1.81883202440178    1.58917226271541   17.00612225595591
H         1.10548460795791    2.96730309651315   17.86763598403596
C         3.66235129008640    2.95493376345561   15.56121367606376
H         4.04229757839085    3.61441997725505   14.78859419185981
H         3.45261609355414    1.98416744168840   15.11494116652550
H         4.42043600910566    2.81802160381464   16.32936575965911
C         2.52172730048777    4.91262662860378   16.73718916648809
C         1.37645397291838    5.59416189917615   17.14144084574909
H         0.40764857075213    5.14558655639464   16.97112648303084
C         1.45627470564665    6.83090753135864   17.75523587868367
H         0.55367990736120    7.33471825163127   18.07234930892552
C         2.69046521353882    7.42328597139423   17.96395499712814
H         2.75776246350439    8.39053484159196   18.44157105081269
C         3.83552796868474    6.75854456131924   17.56360821492520
H         4.80435649156600    7.20922625989778   17.72408219928416
C         3.75254338088840    5.51100245681723   16.96773776851706
H         4.66293590004194    5.00742459777148   16.69019821227242
C        -2.27072171966457    2.28627118697113   14.41092118030929
C        -2.34578971833657    0.91579267293678   13.72539300627719
H        -2.20052619493720    1.00786195217721   12.65199745321066
H        -3.30098896637642    0.43137577444572   13.91677270870537
H        -1.55675409756964    0.27846653105284   14.11935234132342
C        -2.65333534801317    2.10881256381802   15.88721800966000
H        -2.51165165444764    3.03359824472016   16.44127704255301
H        -2.06058333478470    1.32244624219518   16.34851389739091
H        -3.70315852972350    1.82837923008067   15.95732497120673
C        -3.23401208990544    3.30574326881939   13.82194519729039
C        -4.29344976112694    2.97137756171802   12.99075119671361
H        -4.47196876053481    1.94276835926090   12.71935970940336
C        -5.13824309429069    3.94897351953264   12.48959692698072
H        -5.95717841050064    3.66596030300693   11.84311936032071
C        -4.94191617170207    5.27846872297271   12.81332813063847
H        -5.60240642367622    6.03904413906660   12.42190270922427
C        -3.89382900495555    5.62492099017892   13.65011346749492
H        -3.73248110775059    6.66034413025489   13.91575650300765
C        -3.05370048800580    4.64840153556554   14.14796341351896
H        -2.23222185134125    4.92837521123338   14.79260064507212
C         1.10160550951768    4.27360731441199   11.33590885597715
H         2.08208214054608    3.83535086069601   11.11960317490876
H         0.36164916332674    3.83276163241312   10.65356111353480
C         1.64115967279536    5.99001216616750    9.69221119003520
H         2.67231828442058    5.64128251435406    9.59332403677360
H         1.63921016639199    7.06939228116016    9.57463384179714
C         0.78626298315504    5.33902342267698    8.62877103231527
C         1.08585814684569    4.04142497101877    8.22934940071387
H         1.95804603445917    3.55605743539627    8.64259804336279
C         0.29359550531201    3.35753570503000    7.32513932138707
H         0.54516079523742    2.34743932259917    7.03973799451038
C        -0.82498598761348    3.97620040338169    6.79791848121613
H        -1.46137760694217    3.45249650221300    6.09998408973036
C        -1.11525100183873    5.28214485157794    7.14535791378095
H        -1.97118861296855    5.76681562400969    6.70108781955462
C        -0.31377679485041    5.98299364238159    8.04258702356164
C        -1.97543753336402    7.73037020327929    8.39300663823379
H        -2.57304685322524    6.96156706429741    8.88038113164427
H        -2.38251027471042    7.91756757400927    7.38929422126707
H        -2.06158832942830    8.65558927590986    8.96587830299728
C         0.23289990895906    8.28847446041346    7.65681427745760
H         1.25186469158834    7.92010666794062    7.56880921115250
H         0.24002733200371    9.23886147506260    8.19254218747601
H        -0.15467572364057    8.46416545298228    6.64256919372043
C        -0.01480766092784    6.42683131300928   11.42174166165093
H        -0.57105965316667    5.82678775819617   12.14435208178713
H        -0.64247237411946    6.56218788516163   10.53762283247405
C         0.29145823130381    7.80289989456903   12.01631634490514
H         0.76779123056412    8.41164037120558   11.24629068571706
H        -0.65324895799278    8.28947622439873   12.28918955533739
C         0.53388038478700    7.15395926897115   14.33949371907262
H         1.30373793668484    6.89659792272501   15.06506474541730
H         0.06529681682050    6.21746988428313   14.03983188781783
C        -0.51637232585996    8.03515143315945   15.01568747029376
H        -1.01488587121877    7.44350020688472   15.77859891336873
H        -1.27367372536923    8.38173091531044   14.31625393063029
H        -0.06827968810440    8.89671851826852   15.50338338192285
C         1.81487020689097    9.01991684618335   13.45285751575972
H         1.04885313858313    9.74406234888581   13.76235504745635
H         2.27151340376349    9.38550250272405   12.53176681421999
C         2.90772390371756    8.92138708136499   14.50643431805219
H         3.44693192087319    9.86430446982121   14.55640754546415
H         3.60915010746977    8.13400040112103   14.22853318203689
H         2.50916924404694    8.70392563678800   15.49360666765434
C         5.83101989755216    5.96494878928032   14.06704538428219
H         6.45420228506698    5.20218469562959   14.52308474759036
H         4.84991061680320    5.91832732565434   14.52709121822542
H         6.26613070112570    6.93140149894566   14.30432772027328
C         5.18693168952863    3.91020671125147   11.76648413329922
H         5.95063649771718    3.21512244955392   12.10025523130743
H         5.05722604020691    3.76584802324312   10.69762908985163
H         4.26012958455691    3.64032435557984   12.25919184211945
C         7.42303471821977    5.95104402047578   11.47035742049591
H         8.12745334776569    5.33922380585116   12.02380035572775
H         7.75225548068258    6.97929617546030   11.54498039270982
H         7.48084196392392    5.65586599033110   10.43072062423063
C         5.92372467602499    7.72969734394090    9.11069437701934
H         6.98366985022087    7.76842033267385    9.32919184060265
H         5.73579048057758    8.42170549706640    8.29487460783552
H         5.69998500066601    6.72981498477766    8.75386147485806
C         3.40014367561039    9.12318243019821    9.87012629169162
H         2.51902286607133    9.15680084616059   10.49755265553558
H         3.11585881909929    8.69264752362642    8.91679303807203
H         3.69815516050020   10.14949323963792    9.68083994122654
C         5.81681548448426    9.46352278923785   11.70369524814155
H         5.17205540220188    9.92767568767766   12.44386640890862
H         6.23188446994157   10.25461059038539   11.08627811228717
H         6.63682062850293    8.99578597667335   12.23733751503788

