51
CSD_code = YUHZUX | q = 0 | S = 0 | Stoichiometry = C6H26B18Ni | MND = 10
Ni       10.83716942441382    1.52399412669547   12.04252194297934
C        11.93416859479080    2.46747388635842   13.74652844658371
C        12.26624041607568    3.93246493999511   13.47955605039153
H        11.40939008107108    4.58143043299699   13.67133163217269
H        12.60706529380857    4.10720359110870   12.46150600109339
H        13.06778257067124    4.26151996251132   14.14073352588143
C        10.48842970307397    2.11203787427954   14.13450855540748
H         9.77832626119667    2.93692581958482   14.14346108894187
B        12.63826735640670    1.17761087408484   12.92823505727904
H        13.54446922475933    1.36157830460630   12.20297086481444
B        13.04572054692429    1.53468698245238   14.63539926297040
H        14.10492798270335    1.99945500006593   14.84731797086868
B        11.62428258424397    2.17250420958192   15.42592710754665
H        11.61721294403031    3.11126556017301   16.13376639123509
B        10.02530867277027    0.58637881937732   13.69556127004308
H         8.88303198520360    0.34988189384375   13.52674699528694
B        11.42143281980234   -0.18770437615281   12.92606407294227
H        11.41081969417542   -1.14023538406315   12.23932646190105
B        12.71937270657867   -0.12704794511229   14.12585984030370
H        13.57115492629552   -0.93730773293319   14.09400035706568
B        12.08365297025799    0.47787938186255   15.67765023221897
H        12.47657265818580    0.09805312806441   16.71855680795052
B        10.39443297065480    0.95293690625914   15.39790904774990
H         9.49392283074898    1.01568154504192   16.15290030793534
B        11.03809650165927   -0.50147466942067   14.63975700733875
H        10.68687025047685   -1.58128062452694   14.94645912350271
C         9.01665899046215    2.31154414436215   11.01400900987676
C         7.91446506476718    2.68778202659977   11.99959915638862
H         8.10135014206520    3.65850175483264   12.46315389221440
H         7.78862567491248    1.94995762307350   12.78886456949101
H         6.95781691230783    2.76233372474027   11.48260098268431
C        10.20954712720390    3.27108993356077   10.86097978339578
H        10.21017778934144    4.14219396284203   11.51370645874779
B         9.51312658595306    0.73245625890294   10.71367212231585
H         8.90827272444758   -0.17184668347186   11.15805306184162
B         8.56746333384725    1.66005062568604    9.50805017234781
H         7.44249095333455    1.35236458506666    9.35776057902128
B         9.01781609142994    3.34440036191576    9.62203965906430
H         8.25696846483632    4.24073243960752    9.62995137840931
B        11.62031577499695    2.53141493053699   10.41636285879668
H        12.65202664479604    3.03219791370124   10.68855936092533
B        11.26986244745220    0.80645039555664   10.21176054341516
H        12.04729742785893   -0.07324193700935   10.18427388898534
B         9.98079303194505    0.72367234926234    9.00381120884396
H         9.87206087447861   -0.24295494422456    8.34283740369527
B         9.68547627978656    2.34300941610855    8.31936709846623
H         9.37937419680132    2.51404849905984    7.19722769420191
B        10.69883223112088    3.48480605161570    9.22888452626372
H        11.13652012356823    4.52805988066319    8.90492671407774
B        11.32817144803957    1.89589051733194    8.80046494477852
H        12.19196769327068    1.74997366294205    8.01562750934605

