46
CSD_code = YUJFEP | q = 1 | S = 0 | Stoichiometry = C18H24ClN2Ru(1+) | MND = 9
C         0.71063799333429    3.01343175358628    1.09090539557850
C         0.44710925476572    2.78040396283769   -0.27249761328707
C         0.87078069730157    3.73767008497653   -1.26719008993697
C         1.61185946883322    4.87276598614666   -0.88338207887078
C         2.07581659901084    4.98895574626901    0.46852717069268
C         1.63944735570584    4.04108245498798    1.45225606335981
C        -0.01001113021901    2.22955133042134    2.15295940310657
C        -0.39868283874536    1.61812469984984   -0.70329708957731
C         0.39707565983317    3.54418092655267   -2.67644196378220
C         1.87449948151660    5.96296891816530   -1.88712517693686
C         2.85079150161775    6.21259332790578    0.87883444965360
C         2.03042975964096    4.21096093529045    2.89678706332028
C         6.00870928565314    0.63779413298702    1.18388539574605
C         7.29865736271383    0.65140929336267    0.73845683855754
C         7.74393809621065    1.60345698918115   -0.21050291304335
C         6.90244502089716    2.54874203997964   -0.72094923158463
C         5.55266092059237    2.56428841786304   -0.29689778237353
C         5.09765256998147    1.59140006160219    0.67183170267066
Ru        2.77393076739704    2.96073337055540   -0.12449199419358
Cl        2.85179124848354    1.32721703595125   -1.75367616119427
N         3.82446177757316    1.75335794413434    0.99169140487574
N         4.59926105667755    3.40928453377655   -0.65127616903096
H        -0.18340959171310    2.85167392652984    3.02714714829122
H        -0.97842200414802    1.90038645330210    1.78652143245966
H         0.54955450616149    1.34804616357441    2.46498237180747
H        -0.03264285582627    1.21260842768593   -1.64383237356155
H        -1.43293878045734    1.93526651839629   -0.84697381247488
H        -0.37735060063142    0.81635518295251    0.02893554614500
H         0.62629293625796    4.39249584733438   -3.31037101676572
H        -0.67957754066465    3.38261473773369   -2.69017831001948
H         0.87448746437363    2.66254688711185   -3.10833132632837
H         2.44598835442521    6.78163027589558   -1.46649594801177
H         0.92410509822013    6.36687019788801   -2.23674224969608
H         2.41602460540360    5.57920211292437   -2.75048213547347
H         3.24586689863517    6.12998941183993    1.88483982955027
H         2.19078174426106    7.08082164604233    0.85217664006187
H         3.68850908505089    6.39842323354009    0.20945601870364
H         3.08532541013757    4.46188614358795    2.99092730767368
H         1.44532499027593    5.01060040945818    3.35326776230400
H         1.86551402076785    3.29872487798953    3.46176495422337
H         5.66851508470695   -0.08941633957433    1.90542469670063
H         8.00257097974006   -0.07765216332574    1.10807553434157
H         8.77279104868734    1.56925152714245   -0.53284034339828
H         7.24058859728138    3.27357372293565   -1.44570457234283
H         4.87597248394546    4.12230849172685   -1.32992107643196
H         3.46156615633650    1.09641836092925    1.68634729850199

