101
CSD_code = YUJHES | q = 0 | S = 0 | Stoichiometry = C39H54N7V | MND = 7
V         4.94552392717342   26.14569235050310    1.00977283407050
N         3.20444874878928   25.62982171905325    2.43238250452912
N         5.43480180821235   24.46509351757723    1.96601088714203
N         6.11988206652790   24.84524931565394   -0.01803424390116
N         3.37470063792172   26.20594832898876    0.01280208516139
N         4.91872526992368   27.56469029721178   -0.52916225046271
N         4.71575579660328   27.70169315877884    2.26886753445936
N         6.62890540554857   26.91429082737731    1.84078295051121
C         3.76398559729039   24.92329577972301    3.57536395437193
H         2.97775432780900   24.43025040819682    4.17180258523589
H         4.26620203557427   25.66816336211544    4.19246036576602
C         4.82262140562324   23.89742837401124    3.11745341856433
H         5.53473464476708   23.74309441721214    3.94330519181479
H         4.33861792753629   22.92821849777435    2.91200654568676
C         5.93833715323393   23.91343132924594    0.89303885954523
C         6.38422710922042   22.45152135507031    0.73731358714024
C         7.02191321693876   21.96111318505581    2.04580148364987
H         6.28532927894713   21.79757314111599    2.82601589141623
H         7.75117358666127   22.68764615981254    2.39675586979803
H         7.53380341472603   21.01622084900410    1.87038996564291
C         5.18683095415639   21.56488368424422    0.36915448627632
H         5.50889551165024   20.52793133493843    0.28464084727475
H         4.76569934443944   21.87055141078489   -0.58606171420304
H         4.40429404683514   21.61547501134769    1.12437678864517
C         7.45079177181007   22.33101311753338   -0.35782522226273
H         7.85734456038465   21.32064264491040   -0.36253916733475
H         8.26224144232461   23.03108471548786   -0.17045373725891
H         7.04016911218155   22.53241739431763   -1.34309033384231
C         6.20712136739842   24.78151599393649   -1.38329053267295
C         7.32840005261091   25.28163567553126   -2.05734840383094
H         8.16775209682926   25.62728658649253   -1.47170058080675
C         7.35625590529056   25.32750787295651   -3.43725093720147
H         8.22945818051285   25.71729784669713   -3.94226897240239
C         6.27568444914558   24.87988360919921   -4.18123680061237
H         6.30053579729723   24.92149528364850   -5.26020215659649
C         5.16049020751679   24.37868862360856   -3.52819460751402
H         4.31417306353265   24.02603610273829   -4.10334190247428
C         5.12287487174773   24.32689063389044   -2.14953836923519
H         4.24334676319721   23.95231874829789   -1.63842430157268
C         2.33594701573501   24.80837745321224    1.60599317134750
H         1.35657302447270   24.63288781609461    2.08336155082985
H         2.82831260270543   23.84585074076539    1.45482508972278
C         2.16251163058127   25.49450916082034    0.23097859074201
H         1.98794210420947   24.71736630824672   -0.53132853492455
H         1.27009468629129   26.14266654493300    0.24307344344114
C         3.67025222797184   27.24296350741824   -0.75685843058240
C         2.75102020039363   27.90370411087147   -1.79138289369339
C         1.98932664747683   26.82931313908022   -2.58423158608211
H         1.52145436194946   27.28269845244710   -3.45667844564600
H         1.20444614315375   26.36323422188237   -1.99678700277383
H         2.67911539717047   26.06069895994568   -2.92622896872431
C         1.75979562914376   28.83778705001106   -1.08236561825494
H         2.29423710703931   29.62033447842594   -0.54889726043823
H         1.14295922724883   28.29619378455957   -0.36782166775894
H         1.10245072396959   29.30535590383138   -1.81393390158709
C         3.56181231331810   28.71794301647353   -2.80644642458277
H         2.90354045539356   29.06857014211362   -3.60024026803180
H         4.34064050455322   28.10175688477378   -3.24976095959195
H         4.02536042945796   29.58554446963240   -2.34713934403677
C         5.62189211985703   28.71615324563547   -0.75573521765849
C         5.30138188311427   29.89528384535158   -0.06576536200118
H         4.44083264281430   29.88929719429318    0.59029570962028
C         6.07769432550453   31.02808642211970   -0.20390837592509
H         5.81886047149235   31.92710794060227    0.33952305057341
C         7.18616482729796   31.02282146286957   -1.03646981007997
H         7.79120395042185   31.91106728205277   -1.14216102098995
C         7.50892415244993   29.86800593999204   -1.73195284990789
H         8.36941383795200   29.85931167007393   -2.38664159175266
C         6.74298519216279   28.72688993006389   -1.59582300919950
H         6.98855548446196   27.82582345713872   -2.13884380900221
C         2.55382538363910   26.87019953857043    2.83418279065738
H         1.90397122285056   26.71365138193166    3.71064054048523
H         1.93682908168331   27.21447922441066    2.00539769037771
C         3.60667505635476   27.96168183001589    3.12689688420018
H         3.14067333942574   28.94452193137851    2.94459931729381
H         3.89232286073053   27.92165232757514    4.18910855953954
C         6.00071492222592   27.82761165915170    2.54073779031329
C         6.66669981346594   28.84184166005170    3.47743886048804
C         5.78156043942935   30.07345761162705    3.70774292868919
H         6.36450792299771   30.85172821700822    4.19795376037135
H         4.92811861465995   29.85382935950368    4.34129111021410
H         5.42616969629641   30.46085703650930    2.75719305690783
C         6.96114601679855   28.15606014083002    4.81974120236110
H         7.43791186689113   28.85895057376890    5.50123995105612
H         7.62806671050987   27.31079126016825    4.67140055102888
H         6.04474073405007   27.79601110940694    5.28392382574071
C         7.98427651807072   29.33781089816214    2.86749835525785
H         7.81171011560297   29.72947744161357    1.86740894593830
H         8.71830050546975   28.54039385677230    2.80683275714701
H         8.39936590532846   30.13261477186386    3.48578683153158
C         7.94643581476638   26.55659801978723    1.70769866011110
C         8.74742908209148   27.02834472220787    0.65958220123576
H         8.33824446980444   27.77468191451532   -0.00565685966910
C        10.02930038904037   26.54674007029137    0.48228129250826
H        10.63392088036561   26.92280392409948   -0.33195903582163
C        10.54889249403819   25.58637457489664    1.33674150443862
H        11.55106648132020   25.21049728670431    1.19149434786914
C         9.76911264397945   25.11213290179300    2.37948910194869
H        10.16784452487464   24.36328799692485    3.05117982163432
C         8.48663861435472   25.58832759966308    2.56617093872572
H         7.86912370122475   25.20739195900818    3.36907966183961

