45
CSD_code = YUJMAT | q = 0 | S = 0 | Stoichiometry = C14H24N2O4Zn | MND = 4
Zn        1.73441331493726    8.36956841570906    1.39034788051864
O        -0.76173536585678    5.53915777805451    0.03725426469979
C         2.55195097753732    7.52587840374477   -2.71269569709626
H         2.48035808358274    8.51462708634921   -3.16390070025844
H         2.03726864214535    6.81314800594632   -3.34871804286485
H         3.60620830114974    7.25630513782037   -2.66733723493710
N         2.42816333187925    8.34546581079137   -0.40847152961168
O         4.23109812987713    8.43793097565833    4.52634023175377
O         3.06115037472605    7.99179362465286    2.67010181004722
C         0.92038006751256   11.76428729252896    3.84557762437307
H         0.99365540415140   12.58275787348096    3.13072116852876
H         1.43406365160736   12.04952053142942    4.75781085063051
H        -0.13431609130710   11.61285715572873    4.07117073487314
O         0.40460066826825    7.05118021470986    1.20642795501080
N         1.04370906678910   10.00148209511503    2.15031330860038
C         3.54408854187839    9.20697629855674   -0.74684133364792
H         3.28402216513031    9.89894257593916   -1.55430831994699
H         4.41754131526754    8.62676350877635   -1.05918228412678
H         3.81314637234100    9.78724507320253    0.13279470974985
C        -2.56487695199134    4.26520201081501    0.93146741102582
H        -3.23149368115507    4.63323364829911    0.15631386617609
H        -3.14063199306784    4.05914117639372    1.82935055241073
H        -2.10466399806034    3.34475641270854    0.58303914205513
C        -1.49564400840937    5.30005753735832    1.23335739813500
H        -1.94087791253725    6.24101863078892    1.57796001301426
H        -0.81036635601865    4.94609612213249    2.01249359964745
C         6.02877497328023    7.09413256042426    5.32401564901928
H         6.60322553474335    6.18999228575473    5.14332497847768
H         5.56763132526649    7.03419178502160    6.30593112759233
H         6.69675630465837    7.95100959061718    5.30769327455620
C         0.89418488564316    6.65574989987887   -1.09932753635919
H         0.55752068244425    6.03406364455353   -1.91250635662247
C         4.96083150847450    7.24605737596514    4.25548236061067
H         5.40715559235398    7.31502243423868    3.25626125650596
H         4.27232512097555    6.39289628752586    4.25903623875949
C         0.21808562261979    6.46763508081581    0.10217262104137
C         1.95420985443428    7.53401976806203   -1.33054020961489
C         2.57658383574742    9.93444699238675    3.97549472383840
C         1.51745511309766   10.50752344205206    3.26958743648815
C         3.25049286110721    8.76029007874056    3.65408324201629
C        -0.06975159987982   10.66670784062651    1.50245294059414
H        -0.34127378129596   10.10187549914627    0.61357407329015
H         0.19484479912050   11.68522503725348    1.20050211067419
H        -0.94295167578004   10.71878237127809    2.15966169261835
H         2.91438699260539   10.42048462896468    4.87591299775228

