54
CSD_code = YUJZEJ | q = 0 | S = 0 | Stoichiometry = C14H28N2NiO6S3 | MND = 6
Ni        3.48310431903702    9.68818806509655    3.03323081697209
S         3.92922812462652   10.37046473286846    0.20401733284073
S         1.57740157139522   10.95725181054448    3.67884400765659
S         5.65383013479838    8.85755210406949    3.74994518694827
O         2.52292645629050   11.18501154967531    2.54480400064294
O         4.27884111932987    8.26525290147680    3.84218616473508
O         5.51510789398915   10.03108425606769    2.86377440514996
O         6.29818592805679    9.10666834250421    5.00272985065928
O         2.28246995505285   10.09769290470980    4.64130887747568
O         0.97801560110364   12.15308250259984    4.18660521817479
N         4.78286610968764    7.56975095937209    1.11259728992533
N         1.90787984626739    8.47538475116968    1.69841922003300
C         3.59532226323449    6.78784649933858    0.78959504911223
H         3.32887644171488    6.96774909637248   -0.25142572428601
H         3.79716232732596    5.70757004586336    0.86923857044455
C         2.39905631043695    7.07822158499051    1.70477455107950
H         2.70162887008255    6.85103603243941    2.72803863948254
H         1.58116661998129    6.39895372753227    1.40709829926434
C         1.50813611831331    8.88274363482669    0.34013774427933
H         0.42238974940797    9.01641025750299    0.29704224270174
H         1.74804321617821    8.08064118973414   -0.35996083077797
C         2.15933457747784   10.17250069992705   -0.16972802718996
H         1.73952664741840   11.04932305445283    0.31564475661070
H         2.01522054868977   10.25432420235563   -1.24765005559721
C         4.63473513879392    9.05892898637070   -0.88285431155068
H         3.81629317192071    8.59928782734714   -1.42833303958502
H         5.28711647508274    9.55285577678130   -1.60145225164769
C         5.45570006099570    8.05831131673194   -0.08082932026412
H         5.75131565755064    7.22124940245984   -0.74463648562209
H         6.35712333367258    8.56773168310718    0.24440760743847
C         5.69160002724465    6.80689139345784    1.95769253649410
H         6.29331936760631    6.11219892795060    1.33790527032771
H         5.06536266605011    6.20936270417857    2.62191872970918
C         6.64148073711917    7.57768681992587    2.87752381251643
C         0.77086835954483    8.53122141457858    2.64024126952586
H         1.11740308738548    8.05111326755332    3.56012440200087
H        -0.06417417296976    7.93072975065477    2.23221364692704
C         0.20896879550595    9.89019404329093    3.07341050023773
C         7.14161273721998    6.62401333570458    3.95504375074745
H         7.73473943279442    5.82038049009254    3.51967241554543
H         6.30053514582967    6.19660120807632    4.49549242454335
H         7.74635078013267    7.17188398358561    4.67157275769384
C         7.80059874025462    8.31110961106711    2.22294074787709
H         8.53953754720891    8.55686936456300    2.98239351371373
H         7.45076405799272    9.24942228509169    1.80038528477508
H         8.28058715392364    7.70544127559503    1.45482241319511
C        -0.63580271699170    9.66954537165684    4.32495007422007
H        -1.48762138360776    9.02161425798851    4.12015813064003
H        -0.99506494277146   10.62947581444063    4.68609279165644
H        -0.02564989251567    9.22860961885692    5.10898874191207
C        -0.58946405449718   10.67918904212327    2.05134612182747
H         0.03878708536056   11.04625803494844    1.24822591511077
H        -1.01123458069824   11.54926077185309    2.54937901457887
H        -1.40500856504070   10.08525731447804    1.63763594911661

