47
CSD_code = YUJZUA | q = 0 | S = 0 | Stoichiometry = C20H14N8S4Zn | MND = 4
Zn       12.24037432552183    7.14012541349599    4.09396495030521
S        16.63545856649802    3.17991116774633    7.05145065594040
S         9.95892924007158    8.41082512766511    7.81745239217200
N        13.56364916633778    5.81687863131965    4.99876392738914
N        17.33390217064992    2.92048797466382   10.93949565716793
N        15.78892488574871    4.46311554464110    9.25107657669757
N        11.31303834464867    7.88870475163646    5.48108303805457
C        14.71872691713513    5.49405941152369    4.42091683353955
H        14.88613267374550    5.89696784294540    3.43241477525703
C        15.67062594370134    4.70641321939075    5.03540853506962
H        16.59734138839511    4.47304980035169    4.53624224224494
C        15.41807162581315    4.22588812351236    6.31902976221377
C        14.20268498906918    4.54331679763325    6.91519204082907
H        13.95098106719826    4.19008728429631    7.89994427926383
C        13.32060188153867    5.34711502472481    6.21924421962996
H        12.37462189348124    5.62948182069833    6.65824015747646
C        16.54627731015827    3.48464184960879    8.78959580411714
C        17.33379498350245    2.70353667756820    9.64271747321857
H        17.95930315965835    1.90592500401329    9.26876849847936
C        16.57292538689968    3.90273182221163   11.40803257819119
H        16.59157570898892    4.05701698327944   12.47644403166956
C        15.79877167050801    4.67845515159095   10.55815311072210
H        15.17008228331513    5.48510126266126   10.90733627708542
C        10.73721855293820    8.13183636133411    6.48379935432649
S         7.84206939653771    3.18212174027625    1.13887073461806
S        14.52861254051614    8.39532068024617    0.36730933057125
N        10.91897917341195    5.80948429290470    3.19654588255515
N         7.15292244730384    2.92116934418539   -2.75095188069106
N         8.69025713645654    4.46740455341803   -1.05902325401945
N        13.16690807950989    7.87853609523291    2.70040446018154
C         9.76565615027684    5.48309529747356    3.77595317820491
H         9.60038158095387    5.88144278149753    4.76667106064306
C         8.81265674566090    4.69758482504318    3.16043021970253
H         7.88736799842117    4.46144874949029    3.66095249695028
C         9.06189925514109    4.22328765426482    1.87376541853565
C        10.27606570115496    4.54327884739187    1.27649660023146
H        10.52574246246354    4.19450547635169    0.28965958654756
C        11.15945120557511    5.34443149828462    1.97372718891582
H        12.10437941849102    5.62869684541860    1.53374605697433
C         7.93385251817231    3.48743414895599   -0.59914667116210
C         7.14953050496356    2.70504928302675   -1.45401383213886
H         6.52393442844866    1.90686458508845   -1.08144204765492
C         7.91382525381504    3.90419169831130   -3.21793026435097
H         7.89848035400571    4.05744212125287   -4.28654627000813
C         8.68361123268735    4.68222740270666   -2.36618165830154
H         9.31120626399509    5.49038284994335   -2.71385032817400
C        13.74639601654317    8.12062618073603    1.69958682077760

