48
CSD_code = YUJZAF | q = 0 | S = 0 | Stoichiometry = C14H28N2NiS3 | MND = 5
Ni        5.73452081662576    5.13566491395841    4.64701412287649
S         7.55586897737439    6.64499357145757    4.78690590958053
S         4.09227335126531    3.77773770267311    5.06141143954590
S         4.68259303132977    5.83594775187525    2.88170867476864
N         6.89535999375495    3.85229625760544    5.98187548539509
N         7.06770978505990    4.03029992281130    3.11611159238139
C         7.12715063936702    2.64474242008030    5.17003424453220
H         6.14736554271445    2.19954018805460    4.98191057268604
H         7.75216106073901    1.92125700159995    5.71726532256057
C         7.77784773069729    2.95081496495344    3.80821258294856
H         8.82447059345220    3.23525799172789    3.94095592584214
H         7.77624182118212    2.02715253751708    3.21487958846358
C         7.96160622484081    5.02317498141271    2.53083853966963
H         7.34123980909823    5.69467314536738    1.93644726759950
H         8.71378556992676    4.55508600226681    1.87152358362154
C         8.68935955108374    5.88564832459361    3.56227756299763
H         9.18052187616616    6.71209549933290    3.04717950440175
H         9.44174902700597    5.33473269372399    4.12226252153946
C         8.16285529896842    5.95635294463238    6.37256369816214
H         9.16784173911367    6.34365045684548    6.54975710001143
H         7.48626372635248    6.38313908967855    7.11347719031719
C         8.15878576530769    4.43178921321473    6.43891026499216
H         8.97184080617670    4.05294673001185    5.81721951658996
H         8.38793980707788    4.12891996488025    7.47139443542062
C         5.96629151375588    3.56703300154832    7.09181760361693
H         6.32679529806619    4.05870362123033    8.00141298773774
H         5.94440835828978    2.48717649593508    7.28556768368275
C         4.52795379466148    4.06113132920728    6.82390642368850
C         6.11192953212443    3.50012519722793    2.13440928972743
H         5.64135941969313    2.63711448503170    2.60973533364165
H         6.64937447947944    3.15744853922902    1.23467740008190
C         4.96394768701607    4.44826562555553    1.69671347391541
C         3.54386776980537    3.30074939402690    7.70604331078078
H         3.59287939245198    2.23347380047604    7.50076705757151
H         2.53082311898070    3.63732908048362    7.50214700603912
H         3.76756764814970    3.46955669447635    8.75910635201910
C         4.40767156297998    5.56979636576903    7.06814288060489
H         4.73728247844027    5.83630388329321    8.07389401493464
H         3.36983963696461    5.87278085951464    6.94521721622792
H         5.00346493578462    6.13705318877741    6.31985992652344
C         5.23184076795015    5.08476115121219    0.33065002608271
H         5.31712205832724    4.31093644102630   -0.43154618424656
H         6.13908350263857    5.68315764092452    0.32216882965084
H         4.40254604641800    5.73790863313446    0.07064062579298
C         3.66846054502710    3.64150125391625    1.60827301160411
H         3.78394620234673    2.80175936966307    0.92341596109849
H         2.86359625157968    4.27881158694825    1.25296861959977
H         3.39469545438664    3.26780809111595    2.59187450272723

