48
CSD_code = YUKJIY | q = 0 | S = 0 | Stoichiometry = C20H24IrN3 | MND = 6
Ir       10.12037298186764    1.85795403346089    1.46205716538429
N        12.09816537156844    1.77462231567471    0.72299146811350
N         9.75491141613210    2.12814662332527   -0.46429165973622
N         7.95105154856558    4.16662550845626   -2.79475385494641
C        13.24493345748092    1.60385477979087    1.39676783675064
H        13.16268109790625    1.47049134946374    2.46532088632392
C        14.48508640211687    1.58938808156896    0.80007030272313
H        15.37084376999883    1.44695316647641    1.39854950150766
C        14.57075030650651    1.75777134277799   -0.57936134488681
H        15.52573208636053    1.74996730107035   -1.08164263416722
C        13.39636016201216    1.93557597886932   -1.28307497537184
H        13.40393685064405    2.07211582192759   -2.35376218303306
C        12.18033001169246    1.94140640282414   -0.60892537703121
C        10.89622370414792    2.13966753277791   -1.33758106359724
H        10.96637627009705    3.09421349291266   -1.89455560349788
H        10.81346750428890    1.34995501580569   -2.11214933386342
C         8.56244826224575    2.43424564491058   -1.21239367167308
H         7.67661258014939    2.19110341896158   -0.61920606679871
H         8.50393853709461    1.84016696357879   -2.13983335154093
C         8.46421247579684    3.89484331484771   -1.60193898347768
C         8.90291787044453    4.89363035383659   -0.73545077152749
H         9.32764770129725    4.61529631391129    0.21814072760333
C         8.79156712084132    6.21369189035082   -1.12881118264904
H         9.12209132171065    7.01233702151259   -0.47895605630010
C         8.24694757670146    6.49636541608611   -2.37360136379088
H         8.14155269698065    7.51267219816314   -2.72128482953457
C         7.84487567031239    5.43198992313951   -3.16335051160646
H         7.41885052214889    5.59396688038715   -4.14595318356299
C        10.64883015706109    2.38040188139930    3.43887453711382
H        11.65005230140881    2.80774226647693    3.51700468402313
C        10.54581667957429    0.97511137781674    3.35586312093675
H        11.47487564001919    0.40781783813172    3.34010707974766
C         9.39889647497120    0.20816459446185    3.98965522905718
H         9.76231176736568   -0.76172911791259    4.33481148415738
H         9.04353398482836    0.74764816133378    4.86877534093535
C         8.25039198380357   -0.01293432071632    2.99142897376883
H         7.28734922293574   -0.04500904405785    3.51283691368862
H         8.38463834799744   -0.97857572617271    2.50114439107591
C         8.20516963316677    1.05246596152784    1.91610953566173
H         7.68912052500244    0.71512286249022    1.01844628037655
C         8.19708074084386    2.43603718554600    2.18713645535372
H         7.68020367787353    3.07327954165514    1.47313571532320
C         8.18813818804795    2.98813656457811    3.60307773328871
H         7.62735885735196    3.92444177476433    3.61712404012633
H         7.66189333428628    2.28916745409231    4.25447265233840
C         9.61117212034542    3.24597931288107    4.12784043196973
H         9.65378140780409    3.08592532824142    5.21140559897534
H         9.87319967820182    4.29078801659898    3.94852991626665

