94
CSD_code = YUKLAT | q = 0 | S = 0 | Stoichiometry = C50H37CuNO2P3 | MND = 4
C        -0.69376276688327    0.56019301302419   20.90889566186151
C        -0.71117052636030    1.72725444889547   21.24984152272798
C        -0.75885747723250    3.07459115749974   21.65430306031505
C        -1.51475236543386    3.99550880881612   20.91318370510054
H        -2.03376382207829    3.65519326012191   20.02946844591803
C        -1.59697284207116    5.30791817817470   21.31175023913626
H        -2.17615963296784    6.03044254643181   20.75696448220553
C        -0.91823229022613    5.72321771914181   22.45762363090502
C        -0.15512285561068    4.82196132283507   23.19977966016652
H         0.36102742454206    5.17536460064040   24.07961698076159
C        -0.07835272514227    3.50867885157318   22.80085690618274
H         0.50485997875138    2.79733324449162   23.36634329190025
C        -0.77770088440420   -4.71446994924933   20.58867699801432
C        -0.35945515683192   -4.49851632656048   21.90034014784066
H        -0.52423497878879   -3.52270024147169   22.34507324716365
C         0.25370842388638   -5.51052633913067   22.61149808708853
H         0.57156180430575   -5.34239650547439   23.62993551418145
C         0.46902746292967   -6.74022755298745   22.00835967010886
H         0.95477340193996   -7.53256611706750   22.55842048293600
C         0.06912277698538   -6.95292786352134   20.69983666864587
H         0.24384721644937   -7.91074277794701   20.23147196807475
C        -0.55117341066538   -5.94387229467302   19.98419437255761
H        -0.85620882943669   -6.11240724954701   18.96075339116773
C        -3.24529080142026   -3.34251201296619   20.38784846243433
C        -4.03875486358254   -2.31299885527109   19.86904746255903
C        -5.35913582340277   -2.18397076151524   20.27317005290596
H        -5.96735735789144   -1.37994541035201   19.88110264655257
C        -5.88217795491231   -3.08497973468576   21.18685251309027
H        -6.91020864133687   -2.98988212143905   21.50429776131206
C        -5.09332013007871   -4.10329539091661   21.70046112090508
H        -5.51072197307074   -4.79681509715697   22.41577703387803
C        -3.77051166450871   -4.23618718102983   21.31000040538705
H        -3.15387189105121   -5.02502238947358   21.71884991007718
C        -1.77863096825604   -3.79310722314331   18.06824276935404
C        -2.73477388664497   -4.73520789654824   17.71394517528844
H        -3.34206711254696   -5.20182011652120   18.47930807949164
C        -2.90771688601954   -5.06647433204389   16.38108202652852
H        -3.65118864251751   -5.79797262830804   16.10084934161790
C        -2.13539665335680   -4.45336418661301   15.40836218914698
H        -2.28008941466319   -4.70687412662015   14.36842497354179
C        -1.17675720355022   -3.51601218531350   15.75632558208818
H        -0.57691081117575   -3.04742069118828   14.98910614260340
C        -0.98391114879439   -3.18571741484501   17.08977553509103
C        -3.92164593560951    0.37467549086443   19.14202095016288
C        -4.43430332474923    1.27768788648848   18.21834820557123
H        -4.47887977384848    1.01896980152760   17.16974896686386
C        -4.90506336675054    2.50732848698913   18.64473863456022
H        -5.30925078765081    3.20317390643038   17.92363064900920
C        -4.85697517109827    2.84896272054694   19.98593201323228
H        -5.21980295965977    3.81238242720586   20.31197115126586
C        -4.33644178529084    1.95497562716284   20.90830001051116
H        -4.28864714122250    2.22022206844068   21.95394966136592
C        -3.86566039021119    0.72609311558929   20.49019865043336
H        -3.44660468331326    0.03156474855059   21.20652732026564
C        -4.01573439917027   -1.61909131259750   17.11597294043667
C        -5.03980606655111   -2.54361323075326   16.95935407314746
H        -5.46001399977331   -3.04390577838146   17.82031867333980
C        -5.52531158375254   -2.82427354232185   15.69403841789616
H        -6.32605664027684   -3.54040350451006   15.57690466900659
C        -3.95964730624301   -1.28414622156732   14.72975192459172
H        -3.53511674149138   -0.79906698107553   13.86253403644056
C        -4.99120087269286   -2.19783303937868   14.58116747390423
H        -5.37450108354026   -2.42461688727764   13.59726374700165
C        -3.46970766211832   -1.00590528269654   15.98976998417718
H        -2.65216058999087   -0.30723174573099   16.12494031243202
C         1.17225823899056   -1.54880065663511   16.26180313863722
C         0.54413815274260   -0.77622300619631   15.28584815175646
H        -0.49202836506608   -0.49557868309651   15.42253467482851
C         1.23111175656666   -0.37782272145550   14.15596724715918
H         0.73241913996798    0.21022535172639   13.39895764763792
C         2.56409121133033   -0.72436769466876   14.00073946830946
H         3.10506226303814   -0.41161056304637   13.11994923803938
C         3.20427191181190   -1.45995876343525   14.98364440482006
H         4.24749346469625   -1.71778874312422   14.87142055257437
C         2.51730450297940   -1.86704747491440   16.11397199984208
H         3.02817214948007   -2.43433409237195   16.87904847563074
C         1.30090127798426   -3.13570094997496   18.60169767866029
C         1.59927004605057   -4.38602079010129   18.06775150819176
H         1.18828651501102   -4.67529935379252   17.10914396077180
C         2.42150584169171   -5.25420685125915   18.76169882402008
H         2.64700009723318   -6.22609079556553   18.34676441316304
C         2.95359594597297   -4.88332535855910   19.98601604735336
H         3.58751239785638   -5.56941053978374   20.52795474453122
C         2.67323342317861   -3.63411549734878   20.51352114176557
H         3.09232139817403   -3.34018026757634   21.46443566202523
C         1.84957726667344   -2.76261049059134   19.82427670697658
H         1.61984502295222   -1.78515641060204   20.23129860426498
N        -1.00716382206171    7.08322198828337   22.87500922779667
O        -0.39037326428035    7.41956913295224   23.87071839404241
O        -1.69774910879354    7.84115054489159   22.21581035154373
P        -1.53187319037245   -3.26372328308642   19.78705940658896
P        -3.17444551471519   -1.22439433681921   18.68844103897110
P         0.18813312661331   -1.95156442013596   17.74946273178075
Cu       -0.91825372032361   -1.18480820104037   20.23975477502553

