37
CSD_code = YUKQAY | q = 0 | S = 0 | Stoichiometry = C15H15F3MnN3 | MND = 6
C         5.46305220751109    5.35111342348962    6.33345598190751
H         5.44170349635208    5.46837686600759    5.25866805900339
C         6.60536888300020    5.64962538939761    7.05017618774728
H         7.48076561829170    6.01438532527898    6.53542056923677
C         6.60814002979695    5.47076849588071    8.42630963670441
H         7.48442365857094    5.69489644959166    9.01520906393625
C         5.44937997658253    4.99080259151156    9.01801854335024
H         5.39568210877837    4.82943015648554   10.08334240951067
C         4.35069731586862    4.71338160452586    8.22673245546097
H         3.43317321367306    4.33994134695891    8.66118119692791
C         2.69232676290631    6.46199363721819    3.50036476476997
H         2.61564224512877    5.51734208669930    2.97980591702244
C         2.73895283810024    7.65491901044051    2.79969938464223
H         2.68857475794607    7.64809872387309    1.72225207844081
C         2.85020898427943    8.84411712344987    3.50330252518866
H         2.89072679877604    9.79242662651147    2.98865095040093
C         2.90761107084196    8.78046362340212    4.88686772758071
H         2.99462050787192    9.67558801466796    5.48242732952734
C         2.85340912923570    7.54305517353076    5.50476131574129
H         2.88593901172867    7.46124306866380    6.58246726135681
C         1.05420812699443    2.65502932597874    4.39659549294761
H         1.95889538440816    2.06891888922599    4.48612347706255
C        -0.05039177428781    2.15801233010492    3.73105925688067
H        -0.01437067928333    1.17064742038285    3.29778947228503
C        -1.19267211086314    2.93834142609630    3.63475896312009
H        -2.07300033682835    2.57914949246232    3.12398486625464
C        -1.16766945203880    4.19627977537486    4.22013383030192
H        -2.02953279085044    4.84431374922934    4.18148920925313
C        -0.02064505527378    4.61843154523639    4.86333313131188
H         0.01830375410078    5.58869744214563    5.33911160188868
N         4.34223262974527    4.88977692992063    6.90020581509670
N         2.74912040493529    6.39800509453265    4.83047862027898
N         1.08414414569251    3.86955148073424    4.95782253943660
F         3.67451556813244    3.98901013101990    4.47787266278088
F         2.69274852764868    2.89198829981659    6.74414666134659
F         1.75924396195697    5.41094080708122    7.02907576953034
Mn        2.71327108056781    4.42143712307351    5.90540527176936

