47
CSD_code = YUKQEC | q = 0 | S = 0 | Stoichiometry = C20H20F2N4Ni | MND = 6
C         6.10949239364805    1.31621032490455    7.73633242358291
H         5.30241016065305    1.12551040569307    7.04382032885958
C         6.92111364848638    0.28915135402869    8.19386952993867
H         6.75644398523361   -0.72451364671081    7.86184155463441
C         7.94120685394067    0.59182635145193    9.08044790967934
H         8.59424155435549   -0.18230608906191    9.45860965686533
C         8.10498994082579    1.91069534665702    9.47090587115096
H         8.88668694109275    2.19370950332367   10.15930323892960
C         7.24239742443371    2.86753662769019    8.95877975027640
H         7.33430241102856    3.90742676946915    9.23771270815022
C         2.39000085228720    3.03863025123689    8.90948204555588
H         2.17909136765464    2.70866421259519    7.90302340448614
C         1.54833471793884    2.70591418805996    9.95938780026213
H         0.66251922257886    2.11646584911239    9.77911841984795
C         1.86721587040602    3.14282157320800   11.23417526496885
H         1.23525689353970    2.90155885569844   12.07724701570272
C         3.01657179088394    3.89705268361566   11.40078647992011
H         3.30682932880073    4.26037037901467   12.37458650044198
C         3.79526920564818    4.18187381239929   10.28998560975835
H         4.69389459256214    4.77425988690572   10.37885368320728
N         6.26580947042546    2.57806171319574    8.11056855596745
N         3.49057247302109    3.76120584103697    9.06965095481246
F         3.96484280825059    3.01563583308007    6.40441057265597
Ni        4.80685051650628    4.20434582430094    7.36706956139164
C         3.50414546133063    7.09260547001230    6.99790465324013
H         4.31120570883308    7.28329727836659    7.69044477503761
C         2.69254550732540    8.11969561182596    6.54036381658615
H         2.85721322716747    9.13335498398171    6.87241753950935
C         1.67247472914268    7.81706442836489    5.65374515035201
H         1.01946280099716    8.59121656811395    5.27557583874224
C         1.50868655805242    6.49820544802743    5.26325257637697
H         0.72700243651242    6.21522024168981    4.57482662249126
C         2.37125660955772    5.54132662266079    5.77538231550896
H         2.27933461936942    4.50144620461068    5.49641934878600
C         7.22352744819663    5.37024253980836    5.82458004892538
H         7.43447556489413    5.70016134231453    6.83104089430628
C         8.06517629694968    5.70294229629589    4.77466386961740
H         8.95100581418437    6.29236461360074    4.95492653711362
C         7.74626004592671    5.26604963445558    3.49987688934317
H         8.37820663700418    5.50730942185989    2.65679522362933
C         6.59689345912483    4.51182696602847    3.33328874737831
H         6.30661812053684    4.14850471643821    2.35949329983240
C         5.81821606555328    4.22702381537271    4.44410447491548
H         4.91959831559344    3.63460987992485    4.35525655846947
N         3.34784561403507    5.83074038362337    6.62363987853206
N         6.12294325962562    4.64770435171928    5.66442378581714
F         5.64756127588472    5.39417932999827    8.32950831444288

