26
CSD_code = YUKREB | q = 0 | S = 0 | Stoichiometry = C11H11O3Re | MND = 8
Re        0.37630253527706    3.20021058039778    1.86432779723600
C         1.43160270018329    3.49214536251630    3.45350805829303
O         2.10030072007396    3.59737327551541    4.38828096824850
C         0.74641542153648    5.02885760854765    1.36395585380745
O         0.98483690268180    6.09901565701877    1.00222845927496
C        -1.45727153512043    3.57071132147762    2.67297505618549
C        -2.59777056271344    2.70785111527088    2.15819781890185
C        -2.15312125048394    1.30201397298841    1.71756735958896
C        -0.77756890895131    1.39518822262347    1.12221467955860
C        -0.41881121017391    2.15768152796481   -0.01673685707290
C         0.99372545284898    2.09471856597428   -0.15831704400494
C         1.50739475025051    1.33421030521618    0.90850475685312
C         0.41292244624242    0.91442411544129    1.71504281741753
O        -1.94632153603966    4.43948213050099    3.52425650190493
C        -1.12122669095179    5.43822871770578    4.09985606242618
H        -3.39386817492085    2.66518179772186    2.90615690060152
H        -3.00045170435211    3.24830740613550    1.29289615904139
H        -2.12753297384894    0.63689067739368    2.58519861855937
H        -2.87061431740432    0.89468694543370    0.99901389571972
H        -1.10372140611895    2.54698435595887   -0.75741910612532
H         1.56086002549176    2.47632037037544   -0.99422810936198
H         2.53447255013375    1.02371615269004    1.02734919809419
H         0.46832716084865    0.19776910153475    2.52277089272430
H        -1.76850266483557    6.03196657543404    4.74210763754533
H        -0.31831938897329    4.97700862281537    4.67914029169450
H        -0.67475834068042    6.05725551534718    3.31805133288712

