52
CSD_code = YUKYUY | q = 0 | S = 0 | Stoichiometry = C25H19N2O5V | MND = 6
V        -2.07145732752823   -0.01758416538106   -2.89081250903672
O        -0.66488926311870    0.57974171137326   -2.85950660177610
O        -2.19539645158092   -0.68937504000874   -1.20303797495938
O        -1.85486860391328   -2.35768852716535    0.23650524242060
O        -2.42683713803886   -0.02245590175913   -4.58223221424856
O        -3.06238782415777    1.31529054568288   -2.46782123230809
N        -1.51951358731564   -1.93336689590490   -3.18264923390729
N        -4.33287325509377   -0.99786024840281   -2.84470837562493
C        -1.73499216616545   -1.81950504501518   -0.83859686858169
C        -0.95146567345392   -2.48979806680646   -2.00002711592920
C         0.53480864744890   -2.06498942633368   -1.87568506364034
C         1.27332598900038   -2.51674381961234   -3.10106438281568
C         1.90119177206590   -3.75580265969449   -3.14538732858285
C         2.50606870654265   -4.19472229166115   -4.31048516129130
C         2.47799987363759   -3.40435123796073   -5.44733902882377
C         1.85515735545249   -2.16737948195284   -5.41160159981934
C         1.25630044697628   -1.72290548699330   -4.24552070140341
C        -1.56739409772645   -2.63513066167599   -4.25465314271031
C        -2.04969139407461   -2.15124797759789   -5.50852040994259
C        -2.07838457478438   -2.97387644617746   -6.64336511949334
C        -2.50684753891935   -2.48841850938689   -7.85541664346886
C        -2.90970212261250   -1.15635535017603   -7.96308286169005
C        -2.88461866547427   -0.31992855952307   -6.87262709811809
C        -2.45886717350002   -0.79123718552171   -5.61384530274838
C        -4.94059521133347   -2.14638757811760   -3.00435125387587
C        -6.28736320090588   -2.35550962681836   -2.66851039029410
C        -7.01488961151673   -1.31531714403942   -2.15341557077662
C        -6.39529030302859   -0.06238071394990   -1.96859597216981
C        -7.04781208871558    1.07363971359980   -1.45029316811426
C        -6.36031520021297    2.25122442570224   -1.29783785393397
C        -5.01140428729328    2.35987675310633   -1.64170280431057
C        -4.31534575764837    1.26928823459282   -2.15503458091106
C        -5.02651403433824    0.03438988771177   -2.33157574697135
H        -1.02961739539682   -3.58678989426210   -1.96091295649547
H         0.56517490272163   -0.97232109188687   -1.79486160118633
H         0.94030678408152   -2.51527700747477   -0.96848023039905
H         1.92004214581902   -4.37717863381744   -2.26098811829057
H         2.99787339555864   -5.15634907806066   -4.33212483661008
H         2.94572452637852   -3.75006486364360   -6.35739983428868
H         1.83570290143750   -1.54633944229581   -6.29500342640477
H         0.77837531366962   -0.74898370808452   -4.20812045788649
H        -1.20700020366378   -3.67017643064954   -4.23742706022393
H        -1.75607094860699   -4.00104418033396   -6.54793104696587
H        -2.52939056224306   -3.12929461408572   -8.72278149204844
H        -3.24357239188409   -0.77695731913938   -8.91751368113512
H        -3.18997071559231    0.71345324166673   -6.94952515298568
H        -4.35000988603386   -2.95416268471118   -3.42315922153771
H        -6.72890054546714   -3.32834702736967   -2.81947686796115
H        -8.05437356460927   -1.43828349693227   -1.88399397587959
H        -8.08912560974260    0.99869324080259   -1.17522522416209
H        -6.86563170440153    3.11815444852670   -0.89821964704561
H        -4.48177268069821    3.29143531761700   -1.50515709863254

