77
CSD_code = YULBOY | q = 0 | S = 0 | Stoichiometry = C24H48B4Pt | MND = 8
Pt        9.51802088413741    0.00000270179509   -0.00000841624537
C         7.65614999680949   -0.39069481887487    2.23309257777886
H         7.36626903907320   -0.06371997606383    3.23742433205157
C         9.15498303536605    1.54804223683509    1.48230971942986
C        10.01688070099739    0.58534412014051    2.03860969453229
C         9.82962416627356   -2.18821382162270    2.49157750931328
H         9.21968577730397   -2.97565638376288    2.04532747437209
H        10.84197622240451   -2.30112268429550    2.09865829342622
C         9.88322168485896   -2.44745389197552    4.00555574090570
H        10.27758723197282   -3.44107200079899    4.21253053474578
H         8.88942886669399   -2.37490365075220    4.44065165501010
H        10.52292322883028   -1.71803722996243    4.49672036871682
C         6.70513802442894   -1.51686949029403    1.80934774795924
H         5.67277577968987   -1.17461188963261    1.76892569323855
H         6.75406650303993   -2.35314247962788    2.50500087741660
H         6.98077831955356   -1.88122390270082    0.82079358141410
C         6.56879805158567    1.42137665200903    0.34880387939548
H         6.87556804561555    2.25851138726113   -0.28148836961726
H         6.22526421818112    0.62867984089259   -0.31977722345937
C         5.35758365652680    1.87615626502064    1.17670054715928
H         4.55171603969055    2.21439427811704    0.52703335483549
H         5.62850767446932    2.69771777278810    1.83641174273408
H         4.98278673601658    1.06351318102145    1.79268739330625
C         9.51046967974710    2.99268064937622    1.25218254190681
H         9.21205146665813    3.27818453139727    0.24034531969868
H        10.58394700886233    3.16752936603119    1.35195750044807
C         8.76108956662759    3.88540143905954    2.24409893364066
H         9.02605251768696    4.92971614114477    2.09216818019241
H         9.00475762385473    3.61156522721599    3.26835039822680
H         7.68839273099848    3.77543960516645    2.11141883739918
C        11.42398432984640    0.85835165308601    2.50370729378365
H        11.94679877668153    1.54847373079303    1.83539601304479
H        11.98235273459609   -0.07966404067394    2.52571082407402
C        11.40464670644431    1.44763265408406    3.91644382637615
H        10.91694951207735    2.41881489178497    3.92131876153531
H        12.41870230330854    1.56912856006178    4.29190076023485
H        10.86022302757373    0.78972433643600    4.59027804466466
B         9.21839855098198   -0.74339804886946    2.21684883141243
B         7.75263053288071    0.88798079949011    1.27021583791681
C        11.38006527098050    0.39048926483270   -2.23296575986161
H        11.66991146359390    0.06361593237255   -3.23734040994617
C         9.88074073365855   -1.54796512944984   -1.48240185164791
C         9.01911058077654   -0.58505944862721   -2.03875413431643
C         9.20696647469805    2.18850296394183   -2.49135164073353
H         9.81711119917388    2.97578461112201   -2.04510149081439
H         8.19466485231070    2.30161319809196   -2.09835416892930
C         9.15331253189988    2.44782818913836   -4.00531276570063
H         8.75915809806679    3.44154633344134   -4.21221067208598
H        10.14705698646886    2.37507378056613   -4.44048537566698
H         8.51340940362183    1.71858009081026   -4.49646465828803
C        12.33128306914303    1.51641496595553   -1.80901885642850
H        13.36357817273959    1.17395655396007   -1.76859730455167
H        12.28254575974650    2.35279512602416   -2.50455635655330
H        12.05566742803879    1.88068277966613   -0.82042596417369
C        12.46695977787502   -1.42211805684182   -0.34891971160099
H        12.16001536756442   -2.25941310963823    0.28107439523548
H        12.81050665784456   -0.62966843295093    0.31995322754443
C        13.67821429324796   -1.87678982826290   -1.17681657208398
H        14.48394400758849   -2.21538208818180   -0.52716246585522
H        13.40724662213158   -2.69807635055652   -1.83685343228589
H        14.05322143290179   -1.06399144506118   -1.79246915895987
C         9.52489098549912   -2.99252527855045   -1.25231305659042
H         9.82302932294198   -3.27805916018902   -0.24039801669569
H         8.45139578594209   -3.16713852518083   -1.35230797700508
C        10.27427869450792   -3.88544778595140   -2.24404048494449
H        10.00902898939673   -4.92969589916654   -2.09215016462463
H        10.03090228598340   -3.61157063087985   -3.26835082634917
H        11.34697226729269   -3.77574387091860   -2.11112322547031
C         7.61200181477999   -0.85775030630735   -2.50401055945734
H         7.08896008456950   -1.54776203422722   -1.83576383538739
H         7.05384417922438    0.08038762704004   -2.52607735069129
C         7.63138919015967   -1.44703785803604   -3.91674492050490
H         8.11888052374820   -2.41832418449406   -3.92155653132929
H         6.61735427060951   -1.56831773684735   -4.29232744719784
H         8.17603752911969   -0.78924763886146   -4.59051286977498
B         9.81788128552237    0.74352972867212   -2.21674178478059
B        11.28328165428585   -0.88829405755523   -1.27027643446764

