20
CSD_code = YULFAO | q = 0 | S = 0 | Stoichiometry = C8H10HgSe | MND = 2
Hg        1.77754073665236   11.99635392745911    4.33201726294301
Se        1.76788920132847   14.74247394590809    4.29047150132917
C         2.13978976266661    9.69836041848196    4.75196006302243
H         3.14024008531439    9.65536887988644    5.18930090826914
H         1.40596514543570    9.41052776296536    5.50717056020062
C         2.04467613404829    8.78908969890593    3.53842676891646
H         2.25764627137561    7.76233920668605    3.84540021676458
H         2.76755532996178    9.06182643994029    2.77155594984814
H         1.04839881301713    8.80434167633137    3.10053456530017
C        -0.00317594447731   15.05958177116486    3.61626527802542
C        -0.68637767074192   16.19403773493108    4.03591350315285
H        -0.22116054387664   16.86293308274359    4.74586743195674
C        -1.95176514944420   16.45536404657725    3.54422814378759
H        -2.47992656846418   17.33816551818630    3.87396467506529
C        -2.54314092655843   15.58991541061238    2.63893129675547
H        -3.53327741736683   15.79372031559530    2.25944448989245
C        -1.85950315336247   14.46035161386996    2.21937702515452
H        -2.31390404683352   13.78215069688767    1.51143759755230
C        -0.59045041556207   14.19704305937876    2.69915590844671
H        -0.04741964311599   13.31855479348600    2.35307685361415

