94
CSD_code = YULPUS | q = 0 | S = 0 | Stoichiometry = C37H51Br2N3Ni | MND = 4
H         3.84432433498492   -0.90676597832289    8.62107949712443
H         2.09800605647401   -2.61798377152726    8.81376247504087
H        -0.15533349360304   -2.17263704125970    7.94394827539240
H         3.32759506569669    2.44954880900051    7.07362998939176
H         3.35000562496825    2.21309851726769    9.57832253999790
H         4.70441171781603    1.09879908395796    9.43360742186539
H         4.86938329632603    2.77508042387376    8.89135526368132
H         5.36091056519791    0.17662797532105    7.21736449664251
H         4.57557842521989    0.70418707414905    5.73397277416891
H         5.63466481403149    1.81005564809893    6.61754008271200
H        -1.14244748126570    1.08489325139967    6.38202097204192
H        -2.20630583311939   -1.18785731634259    8.11875324756281
H        -1.85864483270713    0.42992706546469    8.71453305000857
H        -3.10914103168437    0.18648934347841    7.48491015255587
H        -0.64052181131201   -0.71126080532389    4.74889418932974
H        -1.34968841103830   -1.90644106203622    5.83233159397130
H        -2.36569685196933   -0.64686887528795    5.12988663330472
H         2.97582584986342    1.79736005358998    4.26535628779170
H         2.16447805520016    0.40629308398673    5.00335995937744
H         1.51592255276216    1.15789144387412    3.53194870219942
H         0.42018708673133    2.94777302211099    0.15271036854585
H         2.51556985798235    4.16573515473352   -0.19335514315750
H         3.74862198965848    5.07629185627105    1.72322395985777
H        -1.10976581680330    2.35241377424511    3.51927195474892
H        -1.97905615758097    4.18105316652969    1.91342765208443
H        -1.86496412717257    2.98709627096851    0.63029541285902
H        -2.94611378679561    2.70423065740227    1.98911243139362
H        -0.49804637072563    0.92366486775598    0.89093947471070
H        -0.05597193884644    0.35521032732704    2.49739771007492
H        -1.75093374965756    0.46828842007011    2.04460125866769
H         2.63042282636638    4.70365590706009    5.28618186877338
H         3.80037799225137    6.77892297039930    3.38997678028661
H         2.17199069348675    6.87641370641360    4.05481515766290
H         3.56771001537709    6.89652006229306    5.13693307601905
H         4.55484505036491    3.31127394477238    4.50837256676346
H         5.14824322638211    4.68537239544158    3.57560562784982
H         5.02470980436027    4.79151478020600    5.33565583585912
H        -0.17779261240036    5.58787887438714    3.51861407904529
H        -1.67403736089017    4.77953326666479    3.99287353592321
H        -1.12402352477732    6.19007874694150    4.89188211271307
H        -4.05346037326514    5.35061481950280    8.74956503132821
H        -1.40862508466708    8.63596427262081    8.14249298279214
H        -2.74665119433548    3.22576962530216    6.45073512447001
H        -1.78897281099607    2.81735488035337    7.88163745490951
H        -3.50129619180109    3.19943996252229    8.05126381267100
H        -4.81455406430924    7.73458240098232    9.06225360795325
H        -3.63309654915333    7.85259850927355   10.36276610611668
H        -3.60669558754021    9.03150380891582    9.05151307494646
H         1.15736890340741    7.67606320932545    7.64266792321989
H         1.06987729173484    6.71683040197629    6.18156570807823
H         0.27836659221872    8.30265752248749    6.24894673438300
C         1.31272797524648    0.76644285848125    7.15055853771645
C         2.60418266018719    0.52055600420623    7.63564825527117
C         2.85785393312110   -0.70599821528052    8.23376665515470
C         1.87725947574277   -1.67093609654212    8.34453869002698
C         0.61049182263135   -1.41733213788679    7.85744126609598
C         0.30848250628634   -0.20338707871932    7.26045812249413
C         3.71142775091078    1.54428256177039    7.55245491792822
C         4.19102366257869    1.92821934173337    8.95397635353093
C         4.89047061645521    1.02440324372539    6.72544218138456
C        -1.08517706530774    0.04827237930700    6.73031679032976
C        -2.13071482444603   -0.14281184727344    7.83084720376519
C        -1.37830019217244   -0.86123443546415    5.53501189585962
C         1.20841329984512    2.27116353957844    5.34924397776193
C         2.00839769872265    1.34671987997942    4.47997539396346
C         1.18114870819468    3.63386726539251    3.36533856070792
C         0.45491805556595    3.12354920260056    2.28310896370638
C         0.95886240190622    3.33012797014810    1.00535382732219
C         2.13987333352478    4.01965342242612    0.80802666121831
C         2.83391312858675    4.52944143814152    1.88719583201984
C         2.37060485370185    4.34821686235134    3.18460243050322
C        -0.85692135216141    2.38710950715653    2.45398860588248
C        -1.97990447547702    3.11435878406931    1.70340907927076
C        -0.77924589392330    0.94575157167302    1.94063536720694
C         3.13010807281006    4.94587288022971    4.34552378354379
C         3.16873696831073    6.47195209280393    4.21990561148405
C         4.55458544554983    4.39644075791030    4.43942510911621
C        -0.04461093659808    4.39464825634069    5.30274050399197
C        -0.79309906790562    5.29934790245334    4.36588650944665
C        -1.04976905620537    5.42222411859810    7.19446149030624
C        -2.25991211390140    4.90759393259226    7.69533098084210
C        -3.13032825083552    5.75259897946431    8.35713101702581
C        -2.83869511059817    7.09937656784567    8.53712257433775
C        -1.65224288042493    7.59061195809903    8.01888051958132
C        -0.74856440362726    6.78360651993783    7.34045641336748
C        -2.59581199421918    3.45659246785838    7.50789621659679
C        -3.78053657940219    7.98528960401396    9.29067027673910
C         0.51002704728778    7.39905153770638    6.81177016594892
N         0.95449912609014    2.01832875142714    6.57621060788068
N         0.73296169025951    3.41293259193450    4.71794694582033
N        -0.16177782340189    4.51270109852959    6.57119181382478
Ni        0.48405233717649    3.63880167057893    8.04713499456604
Br        2.37337540154769    4.91783931435676    8.23803219456805
Br        0.46175340792504    2.64531446712011    9.97932181617232

