56
CSD_code = YULTAC | q = 0 | S = 0 | Stoichiometry = C29H21IrN2O3 | MND = 4
Ir        4.73635254648894   17.96113165223367   -1.57636669629038
O         4.22139037091227   14.99441094622204   -1.53016129201985
O         2.24888111510257   18.33182455123875   -3.22736253702344
O         5.00142199017199   19.90153752025794   -1.42617285036785
N         8.26581022400940   17.79082189510186    0.77104710169993
N         6.48200793966841   17.99145104254690   -0.49690337806180
C         4.46286967795715   16.12512426795720   -1.57039734821192
C         3.19251772086487   18.18348227554425   -2.59089043950754
C         6.10325974048567   20.38677644488452   -0.75872580374381
C         5.60804366084829   21.41861952397973    0.24732044332268
C         5.05499122083125   22.59420011641529   -0.24862034054887
H         5.04330347124803   22.75723369652008   -1.31592606680616
C         4.52097684541840   23.53545730639455    0.61030443894239
H         4.09827159135143   24.44671721100474    0.21279845506172
C         4.52352389515325   23.31007025074494    1.97733037549503
H         4.10772192177730   24.04554892644290    2.65056380193283
C         5.04898014757485   22.13151820532028    2.47474336668238
H         5.04003860131535   21.94009736871370    3.53842606847143
C         5.58344917379412   21.18638538213079    1.61436398054849
H         5.97547660652869   20.26453853162230    2.02048448277002
C         7.12727490767211   20.99706445769209   -1.73333465672716
C         7.91055794813455   22.09056367050987   -1.39172388235738
H         7.77401283759753   22.57880623384484   -0.43735415765747
C         8.85209166830269   22.57662334818457   -2.28187737557802
H         9.45090127747627   23.43416571545654   -2.01024516131405
C         9.02533083459066   21.97307937101649   -3.51567206441304
H         9.76010124039020   22.35684153021922   -4.20835037201200
C         8.24886515693497   20.87935892611997   -3.85865303305642
H         8.37590943691161   20.40359267143986   -4.82036615022119
C         7.30791755849638   20.39390208002220   -2.96975067399936
H         6.68911291319768   19.54504919766303   -3.23592565659212
C         6.86219311800261   19.24357729343548   -0.13815783735495
C         7.99219536919145   19.15815882246189    0.66064512216477
C         8.82358669516212   20.07893272445454    1.32428384813897
H         8.59058926837603   21.12771368151428    1.25022104540830
C         9.88877774062396   19.62003526586120    2.03715779539057
H        10.54071624738040   20.30335704667223    2.55627279220869
C        10.15766177358919   18.22745787689550    2.09510342790037
H        11.01400049184324   17.87204535541161    2.64443769438406
C         9.35213571481604   17.33934932762027    1.46644084665893
H         9.51566186800568   16.27323353079319    1.46680383152581
C         7.33503996854307   17.12248804134109    0.05332276972664
C         7.30816041349680   15.67507733463425   -0.12405981303405
C         7.31605864426489   14.81413518513425    0.97030173513212
H         7.32007806386072   15.21652843816741    1.97367040424246
C         7.27882505332487   13.44637541431911    0.77820145329856
H         7.27223815527907   12.78988939869275    1.63638328367666
C         7.23681916305853   12.90480908222564   -0.50046046300250
C         7.23920413202197   13.77031442164254   -1.58935244727965
H         7.20710164577667   13.36528048955121   -2.58981336858397
C         7.27346183477861   15.13758887886649   -1.40960218874911
H         7.27500085114917   15.80079612048367   -2.26200002617152
C         7.16078381211056   11.42529582972233   -0.71005489982378
H         6.13552540919166   11.14218542919137   -0.94857022585839
H         7.46434810245151   10.88577044849066    0.18356355067766
H         7.79207222249385   11.11961024497349   -1.54174090909386

