40
CSD_code = YULVIL | q = 0 | S = 0 | Stoichiometry = C16H18Cl2N2OPd | MND = 4
C         0.11205802666844    2.98815377541416    5.75860215466877
C         1.38044047019565    2.50363432690860    5.38062988269155
H         1.50393022305448    2.11718639257820    4.37779899745661
C         2.42026331439788    2.53494175692197    6.27130928464740
H         3.39097105503069    2.16893232307307    5.97497574086939
C         2.23676437109393    3.03031742292198    7.57024216209065
H         3.07300493634014    3.05671955899023    8.25246404457126
C         1.00026339846097    3.45144294932050    7.98274773599304
H         0.84207352610907    3.79960326566429    8.99296860655972
C        -0.09506243219079    3.42430029077157    7.10113947754573
C        -1.40253957954268    3.78940409515681    7.49435865351866
H        -1.57493756157096    4.13464158552277    8.50284420313116
C        -2.43030095435509    3.67232750677609    6.60219117303182
H        -3.45300690199170    3.89336479456761    6.86192740341840
C        -2.14033030589069    3.27740347902457    5.28293558105590
C        -3.15691419525848    3.06798392682549    4.28053030078911
C        -5.11899895035702    2.74341644664233    3.29659469737410
H        -5.64600844466141    3.63551261395120    2.94486341045007
H        -5.84353613835825    1.95197598138900    3.48752357089537
C        -3.97331206918464    2.33042110847492    2.33828063847875
H        -4.01209124500607    2.87335604594230    1.38824584348599
C        -3.87193566105101    0.80957524784634    2.02370020080106
C        -5.09441386550868    0.39302813946392    1.20396431520881
H        -5.14615156666762    0.96720530317576    0.28242961966568
H        -6.01955162683119    0.54357430253341    1.75529903197737
H        -5.02325176904801   -0.66044247442983    0.94598795378319
C        -3.78739005556708   -0.01083100338487    3.31369874225239
H        -3.71595627107954   -1.06767877333475    3.06902630016376
H        -4.66197227602271    0.12710733757491    3.94562181763346
H        -2.89954795797276    0.26364737138070    3.88354575080207
C        -2.60577841375596    0.56238027582881    1.19654585224854
H        -2.61839596543564    1.15619710453515    0.28549957778633
H        -2.53881065366046   -0.48915687471589    0.92801168226947
H        -1.69832463628058    0.83103474965018    1.76367171120041
Cl       -1.21387670769180    3.58938705471066    0.62957031812941
Cl        1.21116502675652    3.77796059674707    2.52302951481360
Pd       -0.88567006564607    3.12342820455785    2.77414896969933
N        -0.89970441660871    2.99368837723663    4.85955406886432
N        -2.81107490840215    2.75201805906195    3.08103345995385
O        -4.47488875251921    3.06373735472316    4.53638755002395

