103
CSD_code = YUMKIB | q = 0 | S = 0 | Stoichiometry = C42H38LaN9O13 | MND = 12
La        0.18559443504281    0.22769555195883    9.53074478104648
O         1.52952105379883   -1.85640145406958   10.86134622989681
O         0.02992315691289   -0.05620832319458    6.91146608641058
O         2.24823509021438   -0.36520802463891    8.72056701764597
O         2.18200923462277    0.80510558948587   10.48893404278577
O         3.96481706507079   -0.20575827934458    9.94611936757101
O        -1.07610146493667   -1.72048751430923   10.46239676979405
O        -1.94363521097929   -3.03204338318263    9.04767883830001
N        -1.58116213670130   -1.91740110578920    9.36054978381601
N         2.81714786520878    0.07525699551775    9.73169945247966
N         1.45372309803020   -4.08685549768278   11.24452728659929
N         0.62418779834388   -2.33893219027634    8.31852077914463
N        -0.83741419668943   -1.36528125968879    5.28088057528620
C         1.71859922586037   -3.88921952930189   12.65550357911593
C         1.11253986459910   -5.38108191189080   10.79663091161029
C         1.86506591427138   -6.47852014571878   11.20326489127515
C         1.53102090720439   -7.74715406420605   10.76451321514496
C         0.44737809661686   -7.93183907115498    9.92272179515939
C        -0.31384751297885   -6.84170076769854    9.53425811361304
C         0.00518899023888   -5.56973136101605    9.97332736288631
C         1.42721893003236   -3.00309923553300   10.44193668984786
C         1.37578941238178   -3.22347068535885    8.96044264735982
C         2.19448211666459   -4.12961094527820    8.29328001813201
C         2.19832081858671   -4.11182055409599    6.90866421434630
C         1.40043513909804   -3.19950552212902    6.23863349335093
C         0.62054288867258   -2.32752202389429    6.99232421497498
C        -0.11642298312333   -1.16077346019849    6.40573369637041
C        -1.36641942561023   -0.20378249022071    4.59318288630297
C        -1.21367669171697   -2.64865401976100    4.83307527528493
C        -1.17620057848199   -2.95071230911520    3.47512968824472
C        -1.54570314119386   -4.20907978619115    3.03514492862843
C        -1.95626738604230   -5.17275122582152    3.94056263435053
C        -2.01356337705740   -4.86608261192953    5.29022360383386
C        -1.65544445867931   -3.60869689220449    5.74060190927409
H         2.74061592868681   -4.18068039034972   12.90476609678382
H         1.59686711989564   -2.82730581644398   12.86094000339450
H         1.01670743424919   -4.47294717561338   13.25009442173400
H         2.71764985350009   -6.33918134789047   11.84981496434629
H         2.12327258747949   -8.59327395117017   11.07952669807217
H         0.19198985418806   -8.92297297317955    9.57972426242929
H        -1.17262745479155   -6.97938913380448    8.89534455025705
H        -0.61523577942068   -4.73145556271003    9.69392483288628
H         2.82958117068204   -4.80670415404251    8.84164795587821
H         2.83391994707391   -4.78840883592328    6.35730342567721
H         1.40425041736626   -3.14433931334822    5.16173359952232
H        -2.40300178613971   -0.38017394833789    4.30898629665164
H        -1.29818727993771    0.63556810820618    5.28374821106546
H        -0.77707059318125    0.02411825089327    3.70301690312507
H        -0.84684231358583   -2.20719508120049    2.76586945923831
H        -1.50852157090271   -4.43731039489734    1.98038861772537
H        -2.24045894199338   -6.15466012231189    3.59371275314483
H        -2.35346177381894   -5.60394036358978    6.00069286723657
H        -1.73927277140104   -3.36853489349390    6.78964277850326
O        -1.80967650054427    1.74988119149259    8.17434991421789
O        -0.00238714826179    0.16514479491385   12.18116986044813
O        -0.23484903320445    2.35218818308110   10.30446464669431
O         0.90160390861306    2.14223959080353    8.52456926390608
O         0.10649340768013    4.03149264199875    9.06396031993355
O        -1.78801130030920   -0.96985285642517    8.60587141487501
N         0.25682845203489    2.86112287005476    9.28523409948494
N        -4.04997743664067    1.65687557991451    7.83155822008477
N        -2.27400104823283    0.78573518485331   10.73834678185101
N        -1.34144707827047   -0.63135734457365   13.82759970649002
C        -3.91061490813445    2.01731879997446    6.43517008878350
C        -5.29105518397060    1.16611905192575    8.28439424927675
C        -6.47550311873962    1.82588926895364    7.97445877603269
C        -7.68269355634884    1.32908888576079    8.43282543190491
C        -7.72030934082756    0.17580186862380    9.19786993953490
C        -6.54337314874151   -0.49449403340875    9.48955629244775
C        -5.33376203820685   -0.01102003810974    9.02832213918999
C        -2.94295827939829    1.61771851232185    8.60970783140932
C        -3.15406540827532    1.53905407499356   10.09377179777787
C        -4.07086924944870    2.35013856963760   10.75816655562952
C        -4.06328524000864    2.35097076414889   12.14270178548461
C        -3.14978596208782    1.55641930084732   12.81503021466846
C        -2.27032242018429    0.78012334218447   12.06455632156188
C        -1.11162521280230    0.04605071991237   12.67525730270175
C        -0.20150029266937   -1.09997340953562   14.59127959125785
C        -2.62927487459454   -1.06771369682285   14.19273810877633
C        -3.04098748282827   -1.03824376379275   15.52113780449000
C        -4.31123088724175   -1.46950569082634   15.86009316938215
C        -5.17685260571795   -1.93362547092611   14.88436328896505
C        -4.76008334714648   -1.98568779642222   13.56389721512253
C        -3.48990389423057   -1.56658829173129   13.21688672204237
H        -4.42422333847323    2.95727910327328    6.22772641944313
H        -2.84797940896114    2.14326983566457    6.23742569538812
H        -4.31905088267929    1.23273562379855    5.79799961356174
H        -6.45363161992950    2.73134765444139    7.38818967445434
H        -8.59805115902506    1.84906636959697    8.19325383610397
H        -8.66447665096133   -0.20543418459600    9.55562528180700
H        -6.56863277176025   -1.40726164479971   10.06520114491529
H        -4.41650718446288   -0.54743497544695    9.21719460934605
H        -4.74896238626212    2.98199803572650   10.20695548165003
H        -4.74732642983527    2.98068987155056   12.69163767584318
H        -3.10083417438388    1.55928377418910   13.89231544542236
H        -0.31184013024350   -2.15898077345184   14.82323725578492
H         0.68485978857710   -0.93729924985666   13.97972700058881
H        -0.09965437212033   -0.53350232445221   15.51871444235935
H        -2.37505680612537   -0.66868724489358   16.28531366797099
H        -4.62660137272729   -1.43890061111512   16.89223099342839
H        -6.16797466363700   -2.26525842453453   15.15363464896991
H        -5.42200287087465   -2.37047551520680   12.80291333559806
H        -3.14092992217086   -1.64253151650216   12.19842944519684

