79
CSD_code = YUMQUT | q = 1 | S = 0 | Stoichiometry = C24H51NiOP2(1+) | MND = 4
Ni        0.49824262516314    2.04537054211313    4.29388557110106
P         1.51743368799639    3.11097176090197    2.68101715318185
P         1.81422454343946    2.91762877476734    5.86885096940297
O        -0.74094224030924    0.85732833032653    4.93653766641126
C        -0.91270815108533    1.09909237167909    3.77303393259812
C         0.69232686274498    4.52447396566319    1.73203350159110
C         0.58019848217555    5.71753734409502    2.68187901447726
H        -0.02886754533642    6.49215754175184    2.21961717654159
H         1.55071005085505    6.15278514462903    2.90419776821428
H         0.09309860573066    5.41734901224975    3.60595667606977
C         2.71765317866695    4.27149640001572    4.96565361548248
H         2.07870711484771    5.15424669623809    4.98979467848363
H         3.65101748127353    4.51882947142663    5.47596051805391
C         2.30125260105616    1.83919131119193    1.51308781126383
C         2.99617831683706    3.87731676468660    3.51046758937311
H         3.78500192121517    3.12482328901666    3.49039052097398
H         3.34111205704674    4.74139687892732    2.93744519139526
C         0.68704313689483    3.86793837735527    7.05980533962513
C         3.14407300787421    1.94855106039102    6.80070697848065
C         3.51207004490906    2.32531577853805    0.72063958845689
H         3.99052020822826    1.46483064855161    0.25540586852957
H         4.25016764655815    2.81060003029415    1.35335411828778
H         3.23131235576306    3.01087781041200   -0.07092065984393
C        -0.41276527381036    4.45626928501438    6.16081396667629
H        -1.30402307606995    4.67373999091470    6.74628379405661
H        -0.69730943368684    3.74588383832169    5.36465706885102
H        -0.08931359375702    5.38657108615216    5.70050926575072
C        -3.37604006533611    0.72460893034435    3.41050998077458
C         1.44825692556313    4.95481324508255    0.48064504083608
H         0.99805561353709    5.86594339391272    0.08991258015193
H         1.39659481956517    4.20446736865470   -0.30230413020373
H         2.49156126075454    5.16877912253895    0.70081037320953
C        -3.52146222131132   -0.21993499268351    4.60119893973383
H        -4.53756676819311   -0.17576663451742    4.98403856113480
H        -2.85047209673506    0.05047150493766    5.41377823948327
H        -3.31518389036198   -1.24765432737834    4.30929774928916
C        -1.93933471334830    0.65066405353971    2.81952081774774
H        -1.70418749227090   -0.39456741048871    2.58674155909443
H        -1.89752046587050    1.22516952598922    1.89333626156509
C         2.73140403832938    0.68716290450294    2.43391547831704
H         2.82416170290741   -0.23679821532342    1.86703572567123
H         1.98722986426522    0.51991812390604    3.23248157359992
H         3.69717950277932    0.88799307535568    2.88970409590372
C        -4.33851559449882    0.30352380812026    2.29856204909008
H        -4.25780163188913    0.96540571612237    1.43926935861323
H        -5.36132235443560    0.34572862958479    2.66281983405465
H        -4.13736657181658   -0.71423568830085    1.97267925635249
C         1.23161901620322    1.30770330009696    0.55935181075539
H         1.63040930255448    0.46723164027841   -0.00600024677325
H         0.91830990622586    2.06184197706635   -0.15642955261196
H         0.36472125710019    0.96014892363352    1.11910547790815
C         3.69678622950340    2.65960148021732    8.03013574114662
H         4.55363515157896    2.10309970305317    8.40685007417002
H         2.96500577489041    2.70967672949090    8.83062861284164
H         4.03313613657038    3.66593330593227    7.78985885109898
C        -0.72614253502764    4.06582490533174    1.38907037100211
H        -1.28798140283738    4.88865454697642    0.95184881046321
H        -1.23772034090043    3.74629488764345    2.29878951586482
H        -0.72508198650398    3.24554198400002    0.67752354264748
C         4.29282349429851    1.67658401711193    5.82769803010975
H         5.00442412272521    0.99572474692347    6.29137727671077
H         4.83042313995526    2.58495844447021    5.56737669055243
H         3.91895295301622    1.20046987009884    4.92484958145019
C         1.33811202450528    5.00317844082072    7.84511047814448
H         0.55450467455666    5.60006620432550    8.30975564655897
H         1.91940279472726    5.66069808070266    7.20324399021825
H         1.98137216953498    4.63616863193754    8.63672720529625
C         0.03592591417297    2.86117921294795    8.00939528455796
H        -0.77355891151467    3.33915358196607    8.55882177098680
H         0.74500911497772    2.48122143489019    8.73925204611738
H        -0.38146314441141    2.02212035033242    7.45215407469166
C         2.51934568458543    0.60250930022634    7.17765880745427
H         3.28063359831962   -0.06449290827123    7.57710643707868
H         2.08275995275421    0.12929803828937    6.29608298574802
H         1.74216841061093    0.70967595558582    7.92810949512797
C        -3.67520471176517    2.16460159497578    3.83167378840987
H        -3.57050876527429    2.84518901764736    2.98891488100530
H        -3.00791960951288    2.49062958532084    4.62853112754212
H        -4.69438389247874    2.24004737645542    4.20080936581579

