107
CSD_code = YUMTEG | q = 1 | S = 0 | Stoichiometry = C58H44AgN4(1+) | MND = 2
Ag        6.52140378652290    6.33022537497012    5.75965258879380
C         5.64178345357725    6.26005021916257    7.70890103313603
N         6.21618355069947    6.65663424813164    8.86426319093186
C         5.39299897156586    6.37510385466956    9.93314480089109
N         4.44551050213033    5.72997044649637    8.04170267501386
C         4.25758450171796    5.78165017934656    9.40618752883775
N         8.59063375177621    5.68534819717457    3.48427244784231
C         3.18877993901019    5.31840388705873   10.22931835533137
N         6.82803758645430    6.61757978237130    2.65045204838961
C         2.10060161458680    4.58468257593603    9.73759161165910
H         2.07175270688652    4.30550611151276    8.69672500230155
C         1.07791376685291    4.20040799479020   10.56907535058104
H         0.24605619276743    3.63506744057507   10.17821423746606
C         1.12100368025666    4.54314662290876   11.91706740332791
H         0.31130860921605    4.25749731445627   12.57075810016964
C         2.20214931164755    5.22315686260034   12.42473811174947
H         2.21136114664456    5.44481045139639   13.47865204605520
C         3.27821248123396    5.61492596566369   11.61393009234989
C         4.46705858103958    6.23949302384265   12.16616257170033
C         4.60177283828402    6.49274625857351   13.53969626265197
H         3.78205849518436    6.29243061612096   14.20900161878530
C         5.76690441927500    6.98748788910015   14.07511806361646
H         5.83432538954401    7.17091841102211   15.13638832918682
C         6.86715902132283    7.22965787198123   13.25815946170481
H         7.79390022613702    7.58122422489953   13.68465332060732
C         6.76733188143082    7.02061750383550   11.90494433999404
H         7.62376623857567    7.19871110651374   11.27470699888231
C         5.57098908491826    6.56324720126879   11.33585029965676
C         7.43061698717857    7.38255744414310    8.84020342225151
C         7.47238220420821    8.69675375903893    9.29148494440476
H         6.58537480554082    9.14848894974554    9.71056094670357
C         8.65240125500088    9.41013678240586    9.21037685248725
H         8.68071252939215   10.42807992462225    9.56875838028065
C         9.80046129834729    8.83927858301393    8.67005963639585
C         9.73900219132651    7.52898829058285    8.21024829403411
H        10.61978160605400    7.06760624397449    7.79006624784061
C         8.56530250514043    6.80022371302520    8.28759055018561
H         8.54005718294094    5.76660603117902    7.96588331783355
C        11.06950586879760    9.62382705520040    8.56655532030453
H        11.12536101882417   10.10919717913567    7.59182274634495
H        11.93623680490021    8.97530893944286    8.66780239034281
H        11.11367202840066   10.39699857827003    9.32908451936076
C         3.53720288287963    5.33309342210533    7.03306252330446
C         2.32348680725826    5.99236756763681    6.88301315486559
H         2.05426567346509    6.78167098800687    7.56893381954132
C         1.46503140759693    5.62284047072392    5.86481871053359
H         0.51876387196593    6.13298856072165    5.76133239980930
C         1.80118942847148    4.60820876025254    4.97526106109425
C         3.02581807454001    3.96607348092946    5.13078367892364
H         3.29614382134149    3.17014717187499    4.45242078262623
C         3.89443832225081    4.32311316867410    6.14648649914690
H         4.82870612018145    3.79217655820784    6.28571442124424
C         0.87834833353781    4.20934654984505    3.86781550063172
H         1.35877586811667    4.35843159575115    2.90131063231792
H        -0.03998661411185    4.78942744957010    3.89341580915364
H         0.62420497901945    3.15379091885287    3.94915915989108
C         7.39961232457942    6.23124270715097    3.81066688731575
C         8.77796384932686    5.71678241078971    2.11905494567511
C         7.64768157054965    6.31364745885491    1.58486167585927
C         7.46809227573355    6.47990267795182    0.17955550721286
C         6.27392983013199    6.93671395079008   -0.39449079994460
H         5.42165476183461    7.13591376989471    0.23507691920932
C         6.17021454962387    7.11741633692150   -1.75151897435478
H         5.24487933790356    7.46822737315209   -2.18168091374831
C         7.26397687755043    6.84573639549813   -2.56783959854001
H         7.19273597690751    7.00414499556124   -3.63291917038918
C         8.42738461791595    6.35363037968995   -2.02630694319226
H         9.24168850609115    6.12956253731164   -2.69470011739492
C         8.56653642611680    6.13110824919959   -0.64788076986448
C         9.75332001885653    5.51019982281437   -0.08717157306309
C        10.82792378333685    5.10328337829219   -0.89244162895616
H        10.82185809475742    5.31460085414261   -1.94850693014151
C        11.90448005482111    4.42251273533320   -0.37614929332320
H        12.71300121892777    4.12478979632841   -1.02588093104638
C        11.94435770998980    4.09500462412943    0.97568489416720
H        12.77161399439294    3.52779217030560    1.37342462772520
C        10.92492346580486    4.49777735060181    1.80240078625605
H        10.95225995564452    4.23236545779350    2.84688387030191
C         9.84192065638835    5.23290686818924    1.30146314537234
C         9.49377415430319    5.29126025817119    4.49869091268593
C        10.71476550158921    5.93837554004922    4.64246427014283
H        10.99438565618240    6.71530519791810    3.94662873331081
C        11.56706702885255    5.57275796310873    5.66725973552627
H        12.51849939403097    6.07403653439629    5.76616297375469
C        11.21754762503228    4.57386663046585    6.56935767997066
C         9.98597637450842    3.94371797828733    6.41986986579986
H         9.70519396253848    3.16018474229320    7.10835324565424
C         9.12331127619733    4.29729956313479    5.39793220594322
H         8.18326639572886    3.77517703886866    5.26397731653381
C        12.13366509423311    4.17794141141901    7.68350586502329
H        12.38501199607032    3.12129318569358    7.60824522714538
H        11.64895694596085    4.33276052805334    8.64691269371574
H        13.05406211325093    4.75480756136682    7.65948058218052
C         5.61929994040227    7.35299845999535    2.66493233962292
C         5.58693551198634    8.66084421236536    2.19244483753386
H         6.47682744413399    9.09847531103388    1.76463359573780
C         4.41434756298462    9.38516428608983    2.26786887225471
H         4.39163620720805   10.39816007775307    1.89525064300916
C         3.26318933566585    8.83324731649160    2.82413869973628
C         3.31493755524869    7.53079763756475    3.30336637707460
H         2.43368829926042    7.08278772626321    3.73673495660520
C         4.48252227693460    6.79001030842873    3.23126811535732
H         4.49992292375593    5.76190069506741    3.57086216546466
C         1.99716421465835    9.62709626128882    2.88115914883007
H         1.54252710329878    9.67339335169150    1.89159998717457
H         2.19642787433452   10.64769566371302    3.20046663786421
H         1.28278138275039    9.17505248498433    3.56389308767830

