72
CSD_code = YUMVOR | q = 0 | S = 0 | Stoichiometry = C31H34ClO4PRu | MND = 9
Ru        0.42486998420197   -0.53095288748178    7.38984669605091
Cl        0.31105500513853    0.72324836718904    9.37269257596596
P         0.90558116035710    1.54233225660490    6.55709987744454
O         2.49565752808857   -0.53193505402944    7.76707212915362
O         2.68270790419743    3.84096623289219    6.14402793054715
O        -1.61103168594730    1.94343863229612    5.68976916117909
O         1.45529443465955    3.63536610650062    8.71039619063390
C         0.56626405564764   -2.41082736855629    6.13635412648541
C        -0.45587268801867   -1.59373013969015    5.61408855993944
C        -1.55197737019231   -1.18983465634680    6.42351919106935
C        -1.60139359363344   -1.53398496991403    7.78386522486141
C        -0.57218136976848   -2.37543634099682    8.30737671040656
C         0.47476704691431   -2.81223458105042    7.49957524016126
C         1.67952797105227   -2.94039369041035    5.28032455830818
C        -2.77379855151346   -1.15823159824581    8.66025490898861
C        -3.16850578654496    0.30981147429949    8.50258861406105
C        -3.95317290873684   -2.08655858403301    8.34813431065126
C         2.62759159175627    1.70758321409211    7.03842357943019
C         3.18294596335755    0.55305923863838    7.62512900448219
C         4.54149872205738    0.62416683260225    8.00283615813185
C         5.26189807667929    1.77044262300449    7.77029294529201
C         4.70906864637763    2.89064054652859    7.15267017765586
C         3.37839762304538    2.85170009543956    6.77447354119238
C         3.32854927625944    5.06705312759526    5.91897431639782
C        -0.10974382913645    2.91489524893781    7.14491704266149
C         0.22714378195499    3.78194974838498    8.18924519490315
C        -0.71071776126082    4.73067817596501    8.59638199070911
C        -1.95015245480680    4.78827204062147    7.98804856330378
C        -2.31191324024280    3.90132022576484    6.98697037861598
C        -1.39117059944829    2.94322463890728    6.59181263368015
C        -2.74816672422507    2.02809284057835    4.86628165005685
C         1.77879423359558    4.29859629662602    9.90704922327032
C         1.05965162236199    1.78656297715409    4.75885203848432
C         1.72150707955647    0.76615707918865    4.08487908536528
C         1.94903466950926    0.85416008452992    2.72480946948838
C         1.51992266346454    1.97283932135559    2.02792113234405
C         0.87904757832085    3.00119820163586    2.69925325360394
C         0.65021386269348    2.91360155260164    4.06129031403069
H        -0.45791456605647   -1.34338693893696    4.55772134121181
H        -2.36802592146493   -0.64347405737419    5.96932659275793
H        -0.63680554408680   -2.70791806236263    9.33775318092638
H         1.22657324060871   -3.48320085392844    7.90105741646967
H         1.63603948016634   -4.02986337861514    5.23973859803163
H         1.61447765551809   -2.55075896264924    4.26642500172901
H         2.64322326300382   -2.65880868770406    5.70577527588013
H        -2.47495365415381   -1.30996512959066    9.70305018785145
H        -2.29238863776908    0.94240608712346    8.63885890517851
H        -3.59714686457358    0.49997545148543    7.52155185597537
H        -3.90779199300520    0.57628735028924    9.25414708351486
H        -4.79059949201547   -1.85754214449928    9.00274217140457
H        -4.27663045060909   -1.96052246880221    7.31633893285987
H        -3.67434082266627   -3.12833650250847    8.49575390786209
H         4.99373419401345   -0.23578360133898    8.47186495290966
H         6.30011594470616    1.80679884148796    8.06988416280883
H         5.32193047862830    3.76131726031017    6.98209953775309
H         3.67109535340693    5.51770818565806    6.85630340292851
H         4.18114408071348    4.95340351774479    5.24042703802715
H         2.58686090284018    5.71703151555331    5.45598573511836
H        -0.48215538959442    5.41940690240979    9.39365630635840
H        -2.66269939267930    5.53178975647838    8.31345811975830
H        -3.29957942141316    3.94886213372832    6.55716443702590
H        -3.67329061108669    1.89079937393444    5.43724910277187
H        -2.79033485449595    2.98812206148473    4.34259016419637
H        -2.65261098408696    1.22872923840255    4.13208483787735
H         2.76521231304099    3.92982608000507   10.18427361139761
H         1.82083863795357    5.38549090405324    9.77006521283502
H         1.06580328962899    4.05200050695808   10.69864449728138
H         2.06532080098937   -0.08895162121992    4.65599191605666
H         2.46459683202727    0.05857267485731    2.20523746520179
H         1.69396661717825    2.04727614974420    0.96411038158671
H         0.56046339830895    3.88006498909896    2.15607710154010
H         0.16798019935969    3.72420611982562    4.58719386588438

