75
CSD_code = YUMVUX | q = 0 | S = 0 | Stoichiometry = C24H44FeN2Si4 | MND = 4
Fe        7.73038412424699    7.35894220317132    3.68271407563256
Si       10.12271744160585    4.67780217581109    3.99043896388311
Si        9.81569682557494    7.47625832046836    2.43154400406280
Si        5.50310746919454    7.29358674240942    2.70305198579284
Si        5.40747431005790   10.01685062036082    4.41562928637758
C         9.55367099366779    6.45776554240226    3.98262771992420
C         9.57242229413723    7.26003493330358    5.15402271016637
C        10.30017424767405    7.14194887231175    6.34559090916302
C        10.09510109006457    8.06592102788015    7.34415144491637
C         9.16126210462253    9.08804902265974    7.16556925417705
C         8.44808515940643    9.11349027754406    5.98434868933007
N         8.66298839995897    8.24034012447493    5.02913258815788
C         8.84203527718063    3.49382897840851    3.20814397820176
C        10.55995099536280    3.90364445153301    5.69285595561893
C        11.72788303252181    4.49512928551540    2.96452231505589
C         9.38508943288099    6.51311018014827    0.84621457652096
C         8.66510472946240    8.96392731918783    2.46967700488334
C        11.61956209519783    8.12505631407305    2.31714332889429
C         5.96344346583420    8.24009363716827    4.25365737184973
C         6.09022896883161    7.38376701257957    5.37936825464244
C         5.51845880440336    7.44187355191961    6.65719457280029
C         5.84397875160702    6.47056978890341    7.57572925765969
C         6.74409348326916    5.46060909783799    7.23161754444871
C         7.30360294667033    5.49485464129891    5.97047028832515
N         6.97388078612551    6.41355781862579    5.09406776980723
C         5.73406630911385    8.33137356013801    1.12309223274524
C         6.64389846568765    5.80817504544187    2.52677948146110
C         3.69652114778991    6.64804409023375    2.78858326760981
C         5.18431249817095   10.70650521268180    6.19407073957518
C         6.58726088922918   11.24055778633752    3.54095355852266
C         3.69042290629009   10.24727248551192    3.60273324822991
H        11.01774956969012    6.34932596726222    6.45771423473571
H        10.65679137299600    8.00684175033452    8.26530547812027
H         8.99651389014684    9.83321831933041    7.92624469525434
H         7.69375964030288    9.85086194856988    5.77909542262204
H         8.57707967121885    3.79527611517973    2.20296859091760
H         7.92479377488527    3.43675682958767    3.78280832619281
H         9.25041177136343    2.48936533343625    3.14677411560807
H        11.59029150209778    4.11274123407631    5.96390721075754
H        10.45514719681261    2.82274452012668    5.65240705615600
H         9.93072896025621    4.25929878026596    6.50105793970839
H        11.58165066358828    4.80200639019107    1.93573570279953
H        12.07103973885388    3.46506351070775    2.95460501987889
H        12.52855585690494    5.10101301123928    3.37551420669429
H         9.45413025531255    5.44363913578527    0.98772576092600
H        10.06341360037162    6.77660743066559    0.04352140950747
H         8.38035586392567    6.74027269802980    0.51343092664295
H         7.66349664460637    8.66626345413157    2.81826557901412
H         8.51561117857878    9.41978124567874    1.50102486860501
H         9.01887101023021    9.71400549470120    3.16022338898474
H        12.32328852191013    7.32410635898767    2.12343975327181
H        11.91395817799579    8.60170053969973    3.24675245674226
H        11.72798954533614    8.85689426787813    1.52282354536011
H         4.82350212969322    8.22619174785483    6.89718215011821
H         5.40260237155623    6.48302569621410    8.56190946692553
H         6.99986122696627    4.67930575409192    7.92817883874650
H         8.02326297120296    4.77018285863937    5.63600609087005
H         5.70391514200924    9.39286466818555    1.32525070152000
H         4.94974809815557    8.11686975073449    0.40707695473991
H         6.68098417451351    8.11041562938755    0.64726834216351
H         7.68286938173942    6.09282590184899    2.75708804381690
H         6.66656654270249    5.39616587172598    1.52767675131469
H         6.37921245497887    5.02702679396269    3.22278744660061
H         2.97783548800135    7.45676398397980    2.72731936871343
H         3.52147619705140    6.12482270146445    3.72325891077772
H         3.48331868619075    5.95700723850222    1.97909936330841
H         5.91174472849895   10.32028463937876    6.89922456522944
H         4.19722434599341   10.47463353829711    6.58202779696679
H         5.27845629524710   11.78907204315865    6.19196921863147
H         7.57020026598243   11.26723725032010    3.99694226980515
H         6.18108438218485   12.24687769349369    3.58466821437040
H         6.72088098570187   10.99296397682615    2.49576045085961
H         3.70763878863715    9.98587987408751    2.55140633524814
H         3.35616739939793   11.27741333160194    3.67982946674148
H         2.94154009037363    9.62544460005320    4.08182718558568

