100
CSD_code = YUMWAF | q = 0 | S = 0 | Stoichiometry = C42H42N9O6Rh | MND = 6
C         1.88271700923567    1.91910722507372    2.67025029889727
C         0.91676267363037    2.31777779932971    1.74631622381307
H        -0.07528728877819    1.89025020436889    1.80136995368447
C         1.21544403291623    3.23944029967548    0.76207774282458
H         0.44309039310684    3.52409694885035    0.06513254203114
C         2.49391525152004    3.78273884853688    0.68165154530173
C         3.46510695814755    3.38107633092583    1.60380148672436
H         4.45062170525752    3.81264296896660    1.52630611860909
C         3.17026153170180    2.46492197199004    2.58389433896338
H         3.91605323759228    2.15610301276445    3.29897000162236
C         1.96430294612238    5.15440712907469   -1.19052115693184
H         1.59904374387583    4.33757314196168   -1.82192197636662
H         2.49761753309777    5.87494954153162   -1.80878526626603
H         1.11387397043043    5.64967507170073   -0.71052274748535
C         2.47936763003193   -1.05029465169502    6.16615429195283
C         1.73878802365282   -1.76827498264011    7.11203802502252
H         0.65847895594703   -1.73197596240530    7.07613579539384
C         2.37844305153511   -2.50099722775959    8.08254085962012
H         1.81895861978299   -3.05635810597401    8.81830628079947
C         3.77427825909483   -2.54215594397985    8.13988101496635
C         4.51401662478558   -1.82682945636588    7.20214255400788
H         5.59253588298017   -1.83801599882836    7.21987848274647
C         3.87353040412260   -1.08891418404962    6.22696847693665
H         4.44232775268413   -0.53445812170096    5.49716536506635
C         5.70371208639470   -3.38831746904514    9.24835064929231
H         6.15119413362012   -3.82795795890276    8.35075125857182
H         5.89394977517483   -4.03980019579974   10.09994937210088
H         6.15457567094293   -2.40823440795261    9.43629429132033
N         1.54330171797442    1.00034054042991    3.63417041751737
N         2.45546111607565    0.48966966721971    4.41835212075424
N         1.81076646648778   -0.32690012903607    5.20739403425454
O         2.89896914574751    4.69883535574312   -0.24433240463413
O         4.30465486222548   -3.30226393316553    9.13975248993329
Rh        0.00006350487815   -0.00007263547455    4.42309177023967
C        -2.60332983152128    0.67088801923154    2.67038665621587
C         0.72053095430331   -2.59012973206694    2.67030414180185
C        -2.46551446168513   -0.36490095239092    1.74637282302575
C         1.54861662519350   -1.95293311228926    1.74624047571893
H        -1.59927907112661   -1.01032595105276    1.80149844303336
H         1.67445844948663   -0.88003686980631    1.80129333569365
C        -3.41292604656216   -0.56696784316031    0.76201156575600
C         2.19753649283358   -2.67247511186005    0.76209612580930
H        -3.27327108480003   -1.37819817531963    0.06509630761249
H         2.83005056853824   -2.14590342405769    0.06498633059197
C        -4.52264314395344    0.26860539772766    0.68152207763487
C         2.02901409574068   -4.05134655112937    0.68186982095196
C        -4.66052736600282    1.31037874939836    1.60380918058825
C         1.19562490957648   -4.69157291347447    1.60408448478477
H        -5.52692024180879    1.94820619247877    1.52616048345757
H         1.07657181142743   -5.76082820940969    1.52656756267632
C        -3.71980442912240    1.51300884998647    2.58403190107733
C         0.54963108775852   -3.97812577912013    2.58414482867351
H        -3.82522803637988    2.31334507610853    3.29904586051841
H        -0.09060066857504   -4.46957974478892    3.29932477945840
C        -5.44569654107971   -0.87587083416196   -1.19068102763783
C         3.48137139704203   -4.27856369111467   -1.19058648347787
H        -4.55543212680297   -0.78412796261403   -1.82179470181475
H         2.95642868789381   -3.55386293274061   -1.82189496174627
H        -6.33611828642937   -0.77397552936770   -1.80924846075079
H         3.83859962421825   -5.10072388654029   -1.80888991074479
H        -5.44990904321446   -1.85997945929038   -0.71064051562793
H         4.33561299207477   -3.78966516839172   -0.71082435105920
C        -0.33011624700848    2.67214187237870    6.16641950982322
C        -2.14908173448003   -1.62199908711140    6.16642660171032
C         0.66208083705007    2.38982015459678    7.11220208169143
C        -2.40058947365148   -0.62159501015310    7.11225853897098
H         1.17103707870649    1.43623232689171    7.07605514653895
H        -1.82907505406235    0.29587094894661    7.07623408333678
C         0.97691937048525    3.31017594815723    8.08263592934347
C        -3.35515765432348   -0.80902976631351    8.08261021981683
H         1.73782237530514    3.10343885550694    8.81822075580685
H        -3.55648564020915   -0.04672616763506    8.81824476822438
C         0.31469291521930    4.53961415862874    8.13996991007794
C        -4.08896379408146   -1.99713920687237    8.13981188159894
C        -0.67489875205427    4.82246943095104    7.20244542586998
C        -3.83920991813270   -2.99556138900031    7.20224827450377
H        -1.20469048561591    5.76195841798499    7.22040617674908
H        -4.38806298193674   -3.92404506365290    7.22012111148970
C        -0.99384193399911    3.89878001830322    6.22735863334596
C        -2.87970694585057   -2.81001185517036    6.22723918349848
H        -1.75859307395504    4.11407508319774    5.49772319839875
H        -2.68387766489478   -3.57992155389282    5.49754421594084
C         0.08256632206173    6.63346922000505    9.24872976663704
C        -5.78652508453703   -3.24489174710197    9.24834830199630
H         0.23934921095363    7.24102854915837    8.35123555229395
H        -6.39082150963799   -3.41287987454619    8.35067924667546
H         0.55163891081090    7.12390408913872   10.10036724320330
H        -6.44603960781767   -3.08371379523174   10.09976033435877
H        -0.99160202952014    6.53362878389161    9.43676079064995
H        -5.16315948404267   -4.12530524843007    9.43664916409500
N        -1.63801046906802    0.83624234068960    3.63437701894060
N         0.09466850187628   -1.83679599515308    3.63428063339786
N        -1.65181860969741    1.88148259015120    4.41861193045665
N        -0.80350388082523   -2.37139191481268    4.41864928901038
N        -0.62224214232287    1.73146097429198    5.20759268594442
N        -1.18828108581843   -1.40473307582588    5.20766550666189
O        -5.51845234046819    0.16141664761783   -0.24455260588152
O         2.61978596521065   -4.86021339637976   -0.24412601911843
O         0.70784371004263    5.37898792742011    9.13981758276387
O        -5.01254229871171   -2.07626733477509    9.13958690765562

