41
CSD_code = YUMWUZ | q = 0 | S = 0 | Stoichiometry = C12H16CdN6O6 | MND = 8
Cd        2.04533701626737    3.99320160696727    5.52687555102050
C         1.58691686379561    4.03868033793891    8.55660810535739
C         1.96965545101925    3.39552725159011    9.72329382526070
H         1.64071364040296    2.38210282200086    9.90295460595682
C         2.79984933349567    4.03211540687050   10.63074253551893
H         3.10074135625613    3.51964414212307   11.53082054907829
C         3.25449092685461    5.31294722568483   10.37535124239496
H         3.91185017008057    5.80495869564315   11.07457391463652
C         2.88226502350257    5.96256753070213    9.21048848526372
H         3.26501350389883    6.94927376251646    8.99162386814210
C         2.05020390358770    5.33525301532080    8.29602493551184
C         2.04694726190390    4.94927594611600    2.60119250743444
C         1.21884645746181    5.44749679982128    1.60718901320932
H         0.83421493479165    6.45407759265732    1.69025991756286
C         0.85315393751750    4.64752753642714    0.53766412405144
H         0.19902667571230    5.04081458966470   -0.22428890917200
C         1.31025774465947    3.34480019502847    0.45785623146216
H         1.01455560754176    2.71630783493548   -0.36729788991636
C         2.13631188312055    2.83635933656005    1.44632931874268
H         2.46716491041397    1.80857648875739    1.40514433028197
C         2.51258582922826    3.63017830972210    2.51848280014146
N         0.83461477478418    3.39986124823775    7.54169205831844
H        -0.06462272698652    3.84348775841555    7.36632126124674
H         0.70158547968723    2.41161816170905    7.73730716561905
N         1.73984613607747    5.90441408179957    7.03729652850660
H         2.21221033227469    6.79416740356786    6.91283832332685
H         0.74216939781550    6.01572473851496    6.87449286659127
N         2.35125859190584    5.68216296266739    3.77392650617472
H         1.87610726373839    6.57915710547597    3.77701410363594
H         3.34813955623931    5.81743969652611    3.92315794659854
N         3.26066228774876    3.13411191213115    3.61300091423140
H         4.15900649062148    3.59798204277921    3.73106574828717
H         3.39447402572726    2.12863164800327    3.55294382372724
N        -0.14172094559911    3.60435301937531    4.33105953800517
N         4.22964180263656    3.76352877367697    6.76627214116507
O        -0.02773162370456    4.65313958540026    4.99286006878169
O         0.63280574994502    2.67026997261101    4.58882247149039
O        -0.99157725940258    3.49677064716004    3.49023130093137
O         3.45616682838003    2.80309774662766    6.63179549849255
O         4.11682613100790    4.71620221780438    5.97211290897659
O         5.07653527552467    3.76869285047934    7.61689976396213

