25
CSD_code = YUNBUE | q = 0 | S = 0 | Stoichiometry = C13H6O5W | MND = 7
W         0.95683960620297    1.06544741183237    2.78386803505360
C        -0.38787552540559    2.07611309723769    1.70185536757761
O        -1.17218825648213    2.64792460583205    1.10580209945122
C         0.25504601989027   -0.65598246279949    2.03693490252122
O        -0.16512422161723   -1.65048766193082    1.66936007194313
C         2.23073860573634    0.05045438479090    3.94686586776494
O         2.91945632225528   -0.51997576638587    4.65226051679469
C         1.67543542956700    2.76726103245663    3.56118945665947
O         2.05452773470083    3.71927960090950    4.06093523427911
C        -0.36710672315032    0.96399611838128    4.24573267438009
O        -1.13541681741887    0.90746989041697    5.09068156490143
C         2.91512108555775    0.78901467069094    1.31216422741147
C         2.16260670916832    1.58491593447192    0.75858722294456
C         3.96090825969644   -0.10268787030466    1.69845076532681
C         5.11515240254304    0.39521146767315    2.30544604101897
C         6.12862132495006   -0.47091327027009    2.66815299672677
C         6.00286373772045   -1.83095633242511    2.43340940512871
C         4.85888861892906   -2.32820053940598    1.82911142985443
C         3.83761560528197   -1.47332019526399    1.46270697588108
H         1.81534819820107    2.25613674473366    0.01224379158396
H         5.20266007317572    1.45600156759625    2.49286811723233
H         7.01869943103825   -0.08395895346986    3.14133910567760
H         6.79449342444418   -2.50420974866798    2.72552066545534
H         4.75951714668847   -3.38815984738282    1.64875624616177
H         2.93957180831706   -1.85577387871164    0.99795721827222

