50
CSD_code = YUNPUU | q = 0 | S = 0 | Stoichiometry = C17H26Cl2N2O2Pd | MND = 4
Pd       -3.83109387265818    7.91948252794920    3.85997319136736
Cl       -3.15781434551903    9.46422097540862    2.40229649676458
Cl       -4.84239121288421    6.73475502722710    2.24238773884971
C        -3.22338355205898    8.92732236420913    6.61774695245952
O        -2.96484192435325    9.07618544714792    5.34554113892051
C        -3.59600448072201    7.69973798338631    7.21701053509455
C        -3.69535119649548    7.61739368752456    8.61139771900829
H        -3.94315189220954    6.65426607185066    9.02636009552402
C        -3.52236237265644    8.70936634808926    9.43914329362194
C        -3.28299268386307    9.94207981395921    8.82647457698883
H        -3.20367876915953   10.83653865923285    9.42675897062842
C        -3.13670475037761   10.06279138671892    7.46233054209056
C        -3.93917882186307    6.53168227313163    6.44901139379207
H        -4.05493602173709    5.59913968338552    6.99992321808197
N        -4.20572927780048    6.50276558738328    5.19265000690738
O        -4.58522043773356    5.26635058992367    4.71768557952235
H        -4.80171316868220    5.42484242661862    3.75320430889117
C        -3.62184288291990    8.63388630370590   10.95440996392401
C        -2.31551153695439    9.15646929216529   11.56838238232809
H        -1.47277388061781    8.56627584560905   11.21530884252198
H        -2.35713589171665    9.08440058792815   12.65287225538381
H        -2.13807011234898   10.19543054958636   11.30459093973496
C        -4.80049136720005    9.49815502792687   11.42451478298534
H        -5.72654219545835    9.14950039690825   10.97220591168490
H        -4.66005331513323   10.54153645896635   11.15513915899622
H        -4.90058758514331    9.43728584980907   12.50577453659311
C        -3.84466588840360    7.20499144630790   11.45574031064501
H        -4.78957246241024    6.80511624664529   11.09576506272150
H        -3.87410147820883    7.20346448456556   12.54322777925500
H        -3.03536023624247    6.55096003933649   11.14031870400280
C        -2.91479797698931   11.40744887454209    6.81136576736415
H        -3.22925128991378   12.21653086457069    7.47776319397921
H        -1.85389615100302   11.54083549287166    6.57593931529920
N        -3.66665433697899   11.47951805230836    5.53967731202520
H        -3.33638501012893   10.54667629290803    5.06356119785465
C        -3.35651244440047   12.66024630333151    4.72273673372368
H        -3.70410442152862   13.55128255628574    5.25936299738733
H        -2.27421159177978   12.72518296507914    4.59851179403297
C        -4.02502369911328   12.54791293376452    3.35744242351213
H        -3.60160025810105   11.69269839759908    2.82388767519186
H        -3.81596152498667   13.45196756763436    2.78657798116965
C        -5.53005790179168   12.34040578104888    3.49406588701778
H        -5.96090082698212   12.17320090030479    2.50878759971026
H        -6.00183521546225   13.22833488073026    3.92528081605920
C        -5.79867809664801   11.13601028462442    4.39083831904769
H        -6.86948970680495   10.99798718965898    4.54105483127317
H        -5.39890787122262   10.21760142721215    3.92184678140018
C        -5.12167013304744   11.35378999923964    5.73703679279246
H        -5.48952108205373   12.27152539145553    6.20967789887222
H        -5.31468284750672   10.51345046219824    6.40743829300845

