23
CSD_code = YUNPOM | q = 0 | S = 0 | Stoichiometry = C4H8N6NiS4 | MND = 4
Ni       -1.51859025394841    9.60741724090688    4.72458964513332
S        -0.83615111829728   10.30749001409049    6.68116187023247
S         0.59767488013041    9.46385155497244    4.19131178803400
N        -1.46873514642034   11.09793318641963    9.04460914100239
N        -3.31028066347050   10.66501318237887    7.83474126182378
N         2.35026673420668    8.84424321767847    2.41502936951707
C        -1.99645029789054   10.69491585628785    7.87375639843394
C         1.02343653167830    8.91372316611249    2.63080584466752
H        -0.47134895407515   11.15392068720776    9.14399559270753
H        -2.07954543033235   11.35544802081334    9.79942049279621
H         2.98422820359311    9.11476395982233    3.14487576295939
H         2.69048412950788    8.54023342996889    1.52008175651533
S        -2.20124994317493    8.90853112132453    2.76765413153185
S        -3.63482093587118    9.75169919226852    5.25778542967957
C        -4.06073473187732   10.30192141482691    6.81818687361872
N         0.27293398153393    8.55117603619846    1.61407371466473
C        -1.04090696709809    8.52157127944059    1.57494626469785
N        -5.38758253982530   10.37073559066697    7.03409141683390
N        -1.56863105883855    8.11930478900434    0.40384113329825
H        -6.02149349437690   10.09988584987903    6.30433266213360
H        -5.72781564276573   10.67490543364165    7.92896637575769
H        -2.56602434036292    8.06342891432938    0.30446634111768
H        -0.95786294202481    7.86188686176039   -0.35102326715693

