64
CSD_code = YUNQEE | q = 0 | S = 0 | Stoichiometry = C25H28NO5PSSi2W | MND = 6
W         3.02113597534182   15.39001698438868    1.15172659557350
P         2.47074324710342   15.62646508683893    3.53766607894626
Si        1.19508422796452   13.95206762115749    5.79129484405084
Si       -0.39811227016112   16.40042263627322    4.17358648367135
S         6.15242943153154   13.43472464629291    5.13280142235242
N         3.68462465352478   14.79103026266622    4.30734632452556
C         4.51735428289142   15.60247890806143    4.89862761556554
C         4.15794641597163   17.02166303819399    4.86651655092812
C         2.95127619935400   17.19180948158606    4.26856928444441
C         5.67623599133855   15.05644893637303    5.54265076765787
C         6.48281393937141   15.57468344728588    6.52601505698217
C         7.48413039095112   14.67911330475271    6.93637493939263
C         7.43240843202836   13.49291267409585    6.26836024854338
C         5.00589895074325   18.11056971520345    5.35370292053027
C         6.31120760662577   18.24346899858971    4.88351892831566
C         7.09903678706320   19.29611433278217    5.30887866468534
C         6.59848021237108   20.22258673184451    6.20958159610379
C         5.30067812803298   20.09918533394892    6.67662071105007
C         4.50431384005065   19.05368982316835    6.24592045591177
C         0.89769600746315   14.97835588921545    4.18630838851865
C        -0.50847023601942   13.49498733870141    6.52015285076119
C         2.07645100434381   12.32246901689790    5.34666828818778
C         2.15252848495442   14.96196827532079    7.10043926055409
C        -2.13253492205374   15.62524767382950    4.03482462126254
C        -0.16606895366204   17.55811835825180    2.67364504786121
C        -0.24624096764003   17.41163971998018    5.78550622983481
C         3.49763771091395   15.08101918693698   -0.75206538565998
C         1.09446511929270   15.11675747582782    0.71159776977254
C         3.17228278482415   13.44801381216502    1.60787716371238
C         4.91167358493481   15.66360510737739    1.73307455611045
C         2.94231835039155   17.35416742311235    0.80543210000795
O         3.77649515672316   14.90104833716616   -1.84632699855926
O        -0.01608580460647   14.92810533802896    0.51153511031249
O         3.27401624059080   12.35800791088248    1.92645900554400
O         5.94898895195290   15.85032732196736    2.17741701538437
O         2.97053261865608   18.48524876301592    0.63499136034294
H         2.50371150603304   18.15087343679442    4.06617930144830
H         6.34966399684453   16.55276272406872    6.95056052460653
H         8.21268074246686   14.90694461435708    7.69370229840116
H         8.07881784960315   12.64507543413980    6.38102318592415
H         6.69656868739445   17.52458520369104    4.17577706750173
H         8.10751815791749   19.39457494303056    4.93556505152678
H         7.21791910803542   21.04133343093631    6.54399057660647
H         4.90589774879395   20.82117438373271    7.37623678175500
H         3.49208686875148   18.95339790504188    6.61164247448489
H         0.58892402379335   14.26458886694020    3.41559591497549
H        -0.37432620776046   12.82431674223480    7.36169896299803
H        -1.13152194691454   12.98378259008772    5.79484318279633
H        -1.05459629008704   14.36077676978527    6.87732897279447
H         1.47245139197711   11.72186225023766    4.67185466635809
H         2.26318216195428   11.72664203370540    6.23549990073261
H         3.02879781497805   12.50823141801918    4.86115116717210
H         3.14930677939956   14.55796421668202    7.24660934681728
H         2.26444678895636   15.99983401565560    6.80346853691720
H         1.64713378529338   14.94347817436202    8.06098472785518
H        -2.38350553239369   15.02099778235911    4.89813825791256
H        -2.21682489785381   14.99601482922023    3.15434252861352
H        -2.88243043231455   16.40465706281842    3.95124479867245
H        -0.41927112888049   18.58531747551877    2.92099809579649
H        -0.80215249065168   17.26062924684668    1.84514442812535
H         0.85920154133357   17.54666896662626    2.31153103886782
H         0.72575889569812   17.88629663656186    5.87746500128117
H        -0.99702186218143   18.19518966072567    5.81315893490439
H        -0.38958863333450   16.78789027366136    6.66136840096018

