30
CSD_code = YUNROO | q = 0 | S = 0 | Stoichiometry = C7H17Cl2NOPtS | MND = 4
Pt        0.75344517943329    3.89671677648340    2.67297388699445
Cl        1.35256163864663    4.99557295896053    4.54534084384897
Cl       -0.25031600259806    5.68664247258090    1.75328108663766
S         1.80297061114620    2.09998903094758    3.58088388241938
O         1.75900006527509    0.92677677288592    2.70290020337292
N         0.20909683523858    2.80282324446647    0.95022415605851
H         0.71814696302673    1.91524650589251    0.99344618427018
H         0.49251102070163    3.31600814107772    0.11513993945902
C         1.19498767919265    1.58982052643828    5.21611484208926
H         1.27086659431141    2.45635030164295    5.86276840221768
H         1.79327543906105    0.76182544403854    5.57725618675148
H         0.15838083698188    1.28752527710365    5.11334512301698
C         3.53871104956560    2.38451786727332    4.03019972924377
H         3.55653776908734    3.23748176960701    4.69888732163178
H         4.08717344598023    2.60709196790739    3.12115308446196
H         3.93760220509063    1.49308503990038    4.49949608287469
C        -1.23402169914070    2.53995644692170    0.90034723610232
H        -1.72678573436970    3.50987529586582    0.79112077459347
C        -1.64675040941877    1.58764907216631   -0.24539678647312
H        -0.79026534440431    1.30736839154170   -0.85888163176750
H        -2.37305960557029    2.07744499682351   -0.89286325624941
C        -2.27876858584128    0.36724248310530    0.43276180771156
H        -3.05431550111904   -0.08960036227440   -0.17913104437507
H        -1.51721679452718   -0.38616815497318    0.63933339602741
C        -2.81598265173341    0.92240084723482    1.74939410171137
H        -3.02922508289291    0.14246659908443    2.47776946415464
H        -3.72775378805614    1.49363861789584    1.57244191878022
C        -1.69036053443491    1.85065976309849    2.19439193086850
H        -1.99707142289475    2.57242615491455    2.95203289249299
H        -0.86617417573638    1.24756575138886    2.58326824107426

