84
CSD_code = YUNSUX | q = 0 | S = 0 | Stoichiometry = C27H47CdN5O4 | MND = 7
Cd        2.04241174523811    6.35763385194537    3.40702624327918
O         3.84057491510309    6.58612815231894    4.88635969558988
N         2.34056898623855    7.88821838272697    6.03603703499784
C         7.95237473181404   13.71249741557677    9.14269160901570
H         7.71971975121983   14.26771756798304   10.04860662986107
H         8.15577537690815   14.42515766255339    8.34606168362020
H         8.85518169901032   13.13123471548434    9.31862826215959
C         6.79548101242949   12.79818713757025    8.75838092361399
H         6.59182376382649   12.10644151902989    9.57919814590298
H         5.89558914921478   13.39747461919512    8.60118959165603
N         1.37599718577172    7.36176884343262    5.28323502580060
O         3.66832102127731    6.02934157983297    1.75187631946474
C         7.09736249850565   12.00127037730137    7.49147777565781
H         7.99372688811679   11.39708834282767    7.65260330584179
H         7.31039863295581   12.69402321922237    6.67342798099868
N        -0.24213653380549    6.34579265621096    3.56321843088806
C         5.93950378483399   11.08849708369906    7.09411929528651
H         5.71871550496844   10.41605050068457    7.92464348505176
H         5.04844402767582   11.69311579164116    6.90989804407619
N         1.11936430829411    5.43615971966669    1.56889310562511
C         6.26275823535481   10.27441578829099    5.84318719120871
H         7.11027217074377    9.61649798019392    6.05001675413546
H         6.56514855641241   10.96029213800810    5.04743001678180
N         1.94250161401555    5.03322414782274    0.58743057486491
C         5.08480585606207    9.44086021588119    5.34046882686081
H         4.22408146341408   10.08818339674138    5.16000518521241
H         5.35682746317330    8.97530572363070    4.39001677207246
C         4.67100881298039    8.33144602393433    6.31404790432878
H         4.30288383841936    8.75927251325994    7.24452502576753
H         5.52481947875383    7.68110711699201    6.51142713977165
C         3.56481116195942    7.52854331116685    5.67375860897116
C         0.13626403600861    7.36821537516566    5.64614816212692
C        -0.33999909110170    7.88980312990394    6.96886507867792
H         0.51885576075551    8.27482618609251    7.51252502313814
H        -0.80790177416993    7.09626884587439    7.55021731322197
H        -1.06472721068872    8.69062944696873    6.82906199217088
C        -0.79953136895339    6.81502180465255    4.67583732238971
C        -2.18844292026210    6.74466978976987    4.84809342194472
H        -2.65657025312572    7.12439003042148    5.74131635612875
C        -2.94677288555650    6.17194849312330    3.84094443525300
H        -4.01996700753961    6.10384742938709    3.94979230368215
C        -2.34014604661056    5.68131476077491    2.69488172898327
H        -2.92753664510956    5.22818906654953    1.91338277335216
C        -0.94863033104742    5.78613767336163    2.58689567018986
C        -0.16107609964758    5.31963385384671    1.44936578445331
C        -0.83318466049734    4.74910509205620    0.23647777090014
H        -0.06577396495699    4.48311791558531   -0.48570022917442
H        -1.51237305804895    5.47647634434914   -0.20601973821450
H        -1.40283988540931    3.85884010476290    0.49907259452683
C         3.21664685659065    5.34679960181127    0.79951162521505
C         4.15999159493985    4.81109073234336   -0.25704196752349
H         4.91425812440775    5.56774758740193   -0.48083640872868
H         3.58979466639373    4.58178613658307   -1.15687117666593
C         4.84695715732355    3.54496233857363    0.26318697453152
H         4.08160562734796    2.81524725476308    0.53779155185997
H         5.41507904573729    3.79494840385145    1.16215630122859
C         5.78248069238961    2.93206913665613   -0.77536744454681
H         5.21469067965135    2.69852490967321   -1.67901651299977
H         6.55150306503002    3.65913817743540   -1.04645633520108
C         6.44930038664330    1.66037952446971   -0.25578503360201
H         5.67811356006616    0.93894078773814    0.02504161379983
H         7.02301800271063    1.89519664301913    0.64393458396062
C         7.37428486586250    1.03013096639636   -1.29408553214478
H         6.80072237779030    0.79866768384408   -2.19488850111896
H         8.14869985099802    1.74901509951648   -1.57220261546382
C         8.03494849557140   -0.24595808716861   -0.77790258934868
H         8.61074112847913   -0.01537223104648    0.12139200573981
H         7.26087080009874   -0.96461985385605   -0.49868792810250
C         8.95339152304181   -0.87128372745093   -1.82068332688727
H         9.41223358398857   -1.77845649909892   -1.43411201837616
H         9.74449566981823   -0.17746127609903   -2.09705713418514
H         8.39362323782328   -1.12542912906999   -2.71831092101642
O         2.49882034300143    4.19633689659420    4.56142279782936
H         3.15819457280230    4.80020198609678    4.95429170766322
C         3.21855707678618    3.17248799298295    3.89909697688516
H         3.73681745880440    2.53728532191203    4.62662561455467
H         3.94685399568575    3.58692723245264    3.19684194779672
H         2.49556456570117    2.56872552618454    3.35063732638616
O         2.70395305925648    8.56915189868491    2.39528857347733
H         3.47983664605985    8.02534444193355    2.17362882698382
C         2.12040329024888    8.99023234132982    1.17819886110454
H         2.80257943459614    9.65251098401948    0.63323596037688
H         1.21437267105854    9.54176864647767    1.42942194070491
H         1.85713219738870    8.14127971477038    0.53775590336007

