59
CSD_code = YUNTEI | q = 0 | S = 0 | Stoichiometry = C22H30Cl2N2O2Pd | MND = 4
Pd        1.66316610534188    4.62730560228980   16.86122169544525
Cl        2.39187609767798    2.72590719871068   15.76057450921928
N        -0.16849372931703    4.32426602378035   16.29883975381975
O        -0.77172517477847    5.48160748075099   15.84552733906876
H        -0.38228936072448    6.20161742941006   16.41814879886750
C        -0.78165105958992    3.20287377576628   16.19145306659623
H        -0.21227630040970    2.35477656266671   16.56827988492683
C        -2.08910018998241    2.89399306595723   15.65715122654394
C        -2.93057811311509    3.81431492204630   15.02763923891894
H        -2.61530558673223    4.83688195250395   14.90503352742706
C        -4.16654020952580    3.42466744087351   14.54802564069512
H        -4.77758002059579    4.17159261424003   14.06888003387128
C        -4.61902041501674    2.11511004378817   14.66845169545440
C        -5.96836602697202    1.65295577864474   14.14810883157063
C        -5.74480043036828    0.55782269969329   13.09505056251086
H        -5.23561467201693   -0.30345233709267   13.51824104414015
H        -5.14166837686430    0.94192896184567   12.27503825412516
H        -6.70002772962414    0.22561733758998   12.69467790583081
C        -6.77129751804943    2.78412383683321   13.50039515062790
H        -6.24548105929422    3.19747410703866   12.64293950251870
H        -6.97381316630971    3.57944494714601   14.21392256368062
H        -7.72590745633770    2.39556640254329   13.15188088216276
C        -6.78893749684636    1.09139971433478   15.31828674741963
H        -7.76748393520574    0.77200187456614   14.96680153400642
H        -6.92850023103234    1.85492169784076   16.08071706618652
H        -6.29779340210905    0.23761261681973   15.77641279827982
C        -3.77219445032113    1.19823290339416   15.29437684282037
H        -4.07875635298688    0.16954435204936   15.40728226876179
C        -2.53886558500937    1.57196064570929   15.77563738743353
H        -1.90650650630386    0.83760496512338   16.25340412781800
Cl        0.93333496272532    6.52783668756026   17.96292626754892
N         3.49506359462146    4.93119535823676   17.42276944591645
O         4.10109329123140    3.77449652474049   17.87370836101326
H         3.71053245443466    3.05414204228949   17.30223298936718
C         4.10662988041005    6.05348275531392   17.53004405200995
H         3.53475514383409    6.90111892822134   17.15595758485009
C         5.41464207943959    6.36427854790648   18.06180140831756
C         6.26133624091099    5.44411473397488   18.68450436785012
H         5.95005317259870    4.41989506328741   18.80349869744916
C         7.49753827985037    5.83593283809742   19.16174141879157
H         8.11281980144769    5.08897835003136   19.63538787164549
C         7.94502357897061    7.14761643911130   19.04584638775981
C         9.29432314236695    7.61225174832954   19.56409636814925
C         9.06967990670466    8.69950274849159   20.62506543969528
H         8.55460891103245    9.56094058702758   20.20937294431845
H         8.47168435725658    8.30724539121324   21.44498295416216
H        10.02488199119315    9.03378062515091   21.02376618188736
C        10.10457650619862    6.48040765280816   20.20142152258808
H         9.58411865618938    6.05956842223853   21.05849865090691
H        10.30728713210557    5.69038534250800   19.48207580498146
H        11.05904997823422    6.87071980468941   20.54835043103317
C        10.10824724015599    8.18508190102300   18.39473695965619
H        11.08688848290842    8.50581343662712   18.74474496273936
H        10.24784547051123    7.42742196723389   17.62649219504146
H         9.61217444069910    9.04016334019079   17.94442220923344
C         7.09290661963480    8.06435625001318   18.42695530349535
H         7.39538370718903    9.09466445544476   18.31788395384917
C         5.85945230685735    7.68839145291144   17.94779448957046
H         5.22300102270510    8.42264198846888   17.47532089542752

