31
CSD_code = YUNTEG | q = 0 | S = 0 | Stoichiometry = C8H10I2N6O4Pt | MND = 4
Pt        6.64753024597713    6.19884300250023   -0.00055481093598
I         4.98865728280283    4.54927734470870    1.15347111483118
O         3.68430822626154   10.90604937621579    3.14158241615809
O         4.70304341257429    9.43368990162580    4.34632498861135
N         4.51647700196830    9.61067991072797    0.83478664224514
N         5.66048946041843    7.73160535198645    0.74739394962504
N         4.35264922983170    9.90227633055873    3.28699379971272
C         3.80865635693610   10.78153377861914    0.39640198659604
C         5.07691284852900    8.69304643034844    0.04364047442400
C         5.47956964500645    8.03012357327525    2.04846404664656
C         4.76581664295533    9.20930567356250    2.12419625660151
H         3.82752990417175   10.81803788006296   -0.69061614403613
H         2.77676954716138   10.75418742383673    0.74827002570736
H         4.27610315749361   11.67915991006130    0.80214709852527
H         5.05956076173548    8.74090548316110   -1.03052776483525
H         5.84001108207601    7.41941073797456    2.85592001681969
I         8.30767967046854    7.84781239663093   -1.15492115527778
N         7.63378556048246    4.66514429554821   -0.74745084504514
C         8.21789955635937    3.70409664894609   -0.04357729085432
C         7.81498112644278    4.36660761712355   -2.04848020509414
N         8.77874671432836    2.78661432507702   -0.83462294712521
H         8.23540267464170    3.65644864713785    1.03060180198157
C         8.52926015504366    3.18773304818157   -2.12408216659678
H         7.45439720453107    4.97712891799952   -2.85601290085963
C         9.48702452156605    1.61608322141653   -0.39614838820593
N         8.94285514593129    2.49490307925004   -3.28679366239062
H         9.46922924159850    1.58032303902054    0.69091022272369
H        10.51854888677370    1.64315012374476   -0.74908085944041
H         9.01914017737068    0.71818584793270   -0.80079972861512
O         9.61130943947335    1.49123164354399   -3.14124530390383
O         8.59245511908882    2.96330503922035   -4.34619066799329

