29
CSD_code = YUNVAE | q = 0 | S = 0 | Stoichiometry = C12H10Cl3MnN2O | MND = 6
Mn        2.53349327592025    2.11722762239561    1.65283842605120
Cl        1.90260160848888    0.09860790632879    1.54675897901815
Cl        0.50781396631238    2.96078095691695    2.01535103238432
Cl        2.51865223350155    2.46230611183546   -0.43772457130472
N         2.79192293353086    1.97424844984053    3.62192349456326
N         3.31634749843632    3.91535116868527    1.98947016682381
O         4.62454094942890    1.24318367582794    1.25729777196658
C         2.46727568889688    0.98417325480385    4.44787834137203
C         2.67853553345441    1.03544845529721    5.82287890086688
C         3.24098921127128    2.15450618182027    6.39862932015488
C         3.58168478115308    3.22878668032409    5.56555943313520
C         4.14913860919976    4.45206166196199    6.02522201694840
C         4.42717513878139    5.46708693589645    5.16993970177837
C         4.16281991057291    5.35484533610611    3.77450159368127
C         4.39554795016325    6.37527332227560    2.84244589670145
C         4.07224086010630    6.14010065477798    1.52320582987656
C         3.53527818572547    4.91436346116539    1.13970361678419
C         3.33114327106967    3.08485305275892    4.18479469015605
C         3.61958762658165    4.14577995443694    3.29182695851447
H         4.45986113239909    0.28819976030243    1.29542583582986
H         4.75695558015716    1.45423319175439    0.31969698473681
H         3.27223084110797    4.73508988683442    0.10552174630057
H         2.01780545510949    0.10839396570614    3.99875910051882
H         4.85019709133198    6.39237993388309    5.53165558540540
H         4.80759465220867    7.31997345613063    3.16249527919365
H         3.40947950869614    2.21714297667469    7.46272876424891
H         2.38858921947974    0.18925628719705    6.42502335226691
H         4.22203637250234    6.89937829829418    0.77239711921539
H         4.34586091441498    4.55236739977105    7.08219463280739

