39
CSD_code = YUPCIV | q = 0 | S = 0 | Stoichiometry = C16H20I2Ti | MND = 12
Ti        6.45334741863844    2.32804912333125    1.05322092567265
I         8.63831977255871    3.75255598114830    1.87146724151046
I         8.01431251574597    0.08774635059442    0.70698228535648
C         5.31341669088444    0.85171470678986    2.47422777560408
C         6.17576816545326    1.58656155112650    3.31852272796272
C         5.75163368329877    2.92881647729220    3.30398512808292
C         4.66049237773509    3.03101798992811    2.42372279155002
C         4.37253910472485    1.73921794695968    1.90063640894845
C         3.22428243037373    1.36965021518112    0.97871821487697
C         3.29132765552269    2.30098802330615   -0.29795526783033
C         4.74477067713685    2.67108343551942   -0.53538085243593
C         5.73373853497955    1.84669678164690   -1.11904862364959
C         6.92034546751258    2.60509548909057   -1.27856070308106
C         6.67584122827001    3.89518782061439   -0.78318381938494
C         5.35701297582274    3.92862407870949   -0.28330833788575
C         1.90968440556668    1.52580381948112    1.76003320876672
C         3.34670203145960   -0.11567966368402    0.60385542681066
C         2.45523109716758    3.58239143227596   -0.14158815509668
C         2.75114714603156    1.61425755935893   -1.56417291093145
H         5.32654491329993   -0.22590790693745    2.38503157551035
H         6.96179418645907    1.17111920698008    3.93979538561338
H         6.14130576588914    3.72592859800997    3.92415685190278
H         4.05848463308978    3.92172736549588    2.31235285180506
H         5.59474407188194    0.85009525718063   -1.51876503724098
H         7.82056432215807    2.27698966618340   -1.78593803470636
H         7.34782856331760    4.74091947961253   -0.85124513036233
H         4.86493054963741    4.82919047587865    0.05987087322700
H         1.05769344281870    1.29783654608413    1.12419210127701
H         1.78974310974390    2.52579891706031    2.16546334669246
H         1.90506104551177    0.82800523459794    2.59536946970142
H         2.51758726420785   -0.42350050158032   -0.02574622295833
H         4.28172087695120   -0.33333940344297    0.08763347322764
H         3.30651079789462   -0.72301947126311    1.50590961618324
H         2.64495962136745    4.23881833750903   -0.98936567305742
H         2.67525951178068    4.13249116582741    0.76778342669604
H         1.39568394539504    3.34225507846109   -0.14052401891911
H         2.79345693886703    2.31824637202509   -2.39341149669277
H         3.32377692243041    0.73742565764956   -1.84640304207206
H         1.71293613841531    1.32254080599793   -1.42363378067290

