81
CSD_code = YUPRUY | q = 0 | S = 0 | Stoichiometry = C30H44N2NiO4 | MND = 4
Ni        5.89257584804624    0.00004834285157   -0.00004526560003
O         7.60262083827361   -0.55609415374517    0.53772453354719
C         8.42844374151683   -0.12564454228806    1.45176140124502
N         5.91443892964821    1.35462108059797    1.29236934354387
O         4.81239480369370    2.19333783297193    1.40896472700518
C         8.09824023225230    0.97963268832555    2.27758501639981
C         8.99292462671525    1.44542143004900    3.25053864586409
H         8.68493959200817    2.28995605124951    3.84855002592932
C        10.21966029773760    0.85536556681121    3.43991636605108
C        10.53218619493550   -0.24079846842798    2.62756866738775
H        11.48429768964644   -0.71819696634699    2.76774153142621
C         9.69328884171304   -0.74709203475101    1.65810892782441
C         6.84866926024025    1.64225009245964    2.13453339941120
H         6.65164448615294    2.48049260211206    2.80023257996023
C        11.16926664842460    1.39346156523510    4.50036605466162
C        12.50295828798261    0.64255290826757    4.54051732301005
H        13.14120482084962    1.08108633162681    5.30513193903992
H        13.02277866056486    0.71641399297784    3.58801393566772
H        12.35679904348888   -0.40598047538173    4.78949838839781
C        10.50334815151972    1.26200681671008    5.87728481249001
H        10.27747125712868    0.21862656409050    6.08748835680461
H         9.57590269588425    1.82613247497917    5.92208665668822
H        11.16792778689294    1.63504607890415    6.65380006812288
C        11.46497984545351    2.87088447469292    4.20557700474984
H        12.16319478530943    3.26787735441085    4.93951429788771
H        10.56006793328573    3.47078788661526    4.23962730151221
H        11.90637662476225    2.97591557057634    3.21667839183367
C        10.09363056657210   -1.94772829074445    0.80927525550157
C         9.08014118062239   -3.08135719937997    1.04264800620902
H         9.25582787856515   -3.52711863344226    2.02033293217190
H         9.19284373070406   -3.85622494111981    0.28749403008985
H         8.05482237889094   -2.72726042199419    1.03064766279992
C        10.15490330302118   -1.51425632275180   -0.66572377300470
H         9.31611577040979   -0.88567904790197   -0.94516945212330
H        10.17662772355752   -2.38279647350012   -1.32005801698777
H        11.06094078384145   -0.93511049114284   -0.83500625352205
C        11.47468709528675   -2.51268836982385    1.16404841399473
H        12.26078553294300   -1.77813737682826    1.00424795154537
H        11.67808510310579   -3.36508142978890    0.51872738932365
H        11.51231226288569   -2.85730659125574    2.19506371544081
H         4.17302170109404    1.89002793236905    0.72637126776525
O         4.18253354799015    0.55619696139948   -0.53782168520248
C         3.35669162656290    0.12571066001239   -1.45182416593524
N         5.87072103326315   -1.35451914810359   -1.29246533268684
O         6.97279961049121   -2.19318080172271   -1.40911653882890
C         3.68691497164873   -0.97954268716167   -2.27767269850955
C         2.79223431456531   -1.44533499168756   -3.25062801851378
H         3.10025069224078   -2.28982739982330   -3.84868287403244
C         1.56546255341239   -0.85533733625023   -3.43995107633034
C         1.25289390512589    0.24076900991833   -2.62754271001384
H         0.30074542527590    0.71810936305912   -2.76765926675800
C         2.09178556565833    0.74706460087520   -1.65807909847981
C         4.93650135623680   -1.64213548888327   -2.13464473892520
H         5.13354729536091   -2.48034813331451   -2.80037526101269
C         0.61586192304204   -1.39343414707254   -4.50040511667474
C        -0.71788287266846   -0.64261466955146   -4.54046709180000
H        -1.35612368201920   -1.08114892734080   -5.30508574616208
H        -1.23766408628134   -0.71657015524062   -3.58794939864691
H        -0.57181046030379    0.40594415795871   -4.78939192239157
C         1.28172923661168   -1.26184237677750   -5.87733509584057
H         1.50750926864498   -0.21843131854954   -6.08749124020407
H         2.20922140464723   -1.82588674461008   -5.92219857280748
H         0.61715479567044   -1.63489647067124   -6.65384776162152
C         0.32026382733024   -2.87089742848341   -4.20569963669924
H        -0.37795631015273   -3.26789350808643   -4.93962985076236
H         1.22521634341724   -3.47073487868363   -4.23982983479366
H        -0.12107941298148   -2.97602184820254   -3.21678725979450
C         1.69139248008524    1.94763598264618   -0.80917743770893
C         2.70476239579262    3.08134696908354   -1.04264482407546
H         2.52894378696382    3.52705901680213   -2.02033409966499
H         2.59202893931624    3.85622306933405   -0.28749676895258
H         3.73012065433677    2.72733383982366   -1.03070288450480
C         1.63032051991949    1.51417165037319    0.66583265353363
H         2.46917871879383    0.88565302625820    0.94519586791014
H         1.60859513076921    2.38271073887776    1.32017103227141
H         0.72434476478842    0.93495554459866    0.83520503088027
C         0.31023862353762    2.51245630066513   -1.16379567620770
H        -0.47575219796683    1.77779659840978   -1.00395955559403
H         0.10679868102008    3.36479114395226   -0.51841063621861
H         0.27247131389235    2.85712488020276   -2.19478769438974
H         7.61218738033524   -1.88984846230391   -0.72654657391562

