77
CSD_code = YUPXEO | q = 0 | S = 0 | Stoichiometry = C34H30O10P2Ru | MND = 6
Ru       -2.12404482141061   28.70095048720111    5.90309600981533
P        -2.08094868302089   29.82464251070457    7.85042763605489
P        -4.22973431044410   28.05287367441477    6.31811811110018
O        -3.43925585227755   25.90126665733453    5.05936433259884
O        -6.90226251820763   28.59609372413337    6.34418947928408
O        -4.94547195269188   29.22861691316612   11.24736318371247
O        -7.00001689861899   29.88838036589663    9.28493632472694
O        -0.35060441307504   31.63386141208065    9.00316092819072
O        -1.92167832890488   29.77688958987662   10.56548657922587
O        -0.94426209445125   27.07848199088628    6.62082409344857
O        -0.01483142967166   28.74923097235323    5.58642324584805
O        -2.65902667213556   30.19019525428303    4.47200464813910
O        -2.16367810917787   28.17506451408045    3.82231556226597
C        -3.78270347646866   24.85773298571762    4.31012150306224
H        -2.99878590482523   24.21504046095664    3.95853833223594
C        -5.13586312706103   24.81469959286414    4.13103882996302
H        -5.69069144177633   24.08898279870702    3.57152053659883
C        -5.65487494145324   25.92696767980383    4.82689904879330
H        -6.68057075517366   26.22249231350676    4.91548476838782
C        -4.57153790728693   26.55715071097212    5.38531520850013
C        -5.68664150726137   29.05183461101264    5.96897796709577
C        -5.80088077651547   30.28575563250157    5.38678680617199
H        -4.98589240746265   30.87120103047219    5.00921369434412
C        -7.17768757824212   30.59844347334128    5.40984038392951
H        -7.64526634373900   31.48746982932548    5.03810130327991
C        -7.79217656488698   29.53604761206608    6.00287515268903
H        -8.82416875372199   29.33571261120478    6.21938608434954
C        -4.49683243761268   27.57216230410909    8.05359507101195
C        -4.41287864715288   26.23536527069344    8.43048224871377
H        -4.26133616245934   25.47555586587283    7.67929653572564
C        -4.52071879618509   25.89097069017498    9.76192135089006
H        -4.45739789746550   24.85453765160185   10.05906635644494
C        -4.71337044176956   26.86178770544588   10.73113512214765
H        -4.79906220978905   26.56248435361030   11.76374128737009
C        -4.78668203927347   28.20154325466005   10.37056074579490
C        -5.10374028055164   28.92913711038725   12.61122047923497
H        -5.99742890540491   28.32172288079405   12.78874734987692
H        -5.21724198989307   29.89013262421503   13.11103103726864
H        -4.22635816578549   28.41297016472094   13.01570478782150
C        -4.65872539902074   28.56418027051761    9.01969195609379
C        -4.74772883013400   29.99373663160056    8.65264416364684
C        -3.64585619652843   30.70132642836963    8.17334444474266
C        -3.77500613984734   32.04271286793865    7.82608260805686
H        -2.92332921595428   32.57303975341737    7.42727703698176
C        -4.98755000459080   32.68024957676267    7.98826990443814
H        -5.09008225823543   33.72240489925366    7.72382986371742
C        -6.08464544205794   31.99861500035225    8.48925453545770
H        -7.01963972328459   32.52297540516703    8.60777079157220
C        -5.97525279173833   30.65478508449760    8.82323432882930
C        -8.25273788162585   30.49230945190213    9.48696496958664
H        -8.19991577196883   31.28874569058205   10.23657797743491
H        -8.90485464900306   29.69941807313125    9.85077708225635
H        -8.66072217069234   30.89614032902784    8.55401060672454
C        -1.75936544331524   29.04647430414639    9.44157629760218
C        -1.37190147851170   27.77034168592584    9.75479279722893
H        -1.18594819163660   26.98606635447237    9.04783279339726
C        -1.29387352892693   27.72734031944216   11.16354899304610
H        -1.01960508508577   26.88858932235611   11.77073842921712
C        -1.63807337050301   28.97439606802494   11.59528780020791
H        -1.70274215486903   29.39798110171515   12.57936751033377
C        -0.84811949233145   31.13222374033817    7.84916339730361
C        -0.25003107491079   31.73611365248210    6.77382727067360
H        -0.45299448337828   31.51249858399381    5.74428531818920
C         0.66188006176047   32.67000500828545    7.31051238641888
H         1.31031247107750   33.32796739556936    6.76857858584372
C         0.55581212147311   32.55925943404129    8.66533694963818
H         1.06005862715864   33.06691369175334    9.46491834867763
C         0.06147334953763   27.59768371309841    6.07422330447060
C         1.37516502363791   26.84648790114930    6.05027571724908
H         1.90998092639670   27.06608721567718    5.13047234930731
H         1.19207722208410   25.77995948195106    6.14318277875143
H         1.97839244407366   27.18086468057706    6.89295444410275
C        -2.41149934645457   29.37032717848921    3.54911938883942
C        -2.45796338122155   29.82953641376479    2.10757710019110
H        -1.71250953856962   29.29501618485894    1.52541143976336
H        -2.29077353393287   30.90144393927912    2.05494532409765
H        -3.44400012557445   29.60193388113973    1.70552887979249

