37
CSD_code = YURBIY | q = 0 | S = 0 | Stoichiometry = C12H11BCl3N6P3Ti | MND = 6
Ti        5.36479621352629    2.57301899674482    4.37887907681724
P         7.69920194452905   -0.59140407336313    2.03495061260550
Cl        7.36059712619600    2.57355918457128    5.27874510033942
Cl        4.50965809515253    0.95346879999639    5.57311922629141
P         1.33605137878274    2.57282205309661    2.23324824623426
N         3.88009737706088    2.57291874821826    1.78142241632746
N         3.78075841322335    2.57287322122693    3.10619601015763
C         2.69417277100047    2.57288160948861    1.16042861911551
H         2.66852528745047    2.57292531982144    0.08601810358697
N         6.06575467869633    1.36903327314916    1.65267867016443
N         6.01502492610456    1.15774636047111    2.96556304060936
C         2.52183756260389    2.57283476239737    3.51549733121873
H         2.32197819747099    2.57279874646944    4.57829254047298
C         5.04609604540039    2.57300608168721   -0.50360552592437
C         4.87415648123260    3.76293868135773   -1.21355142160641
H         4.91926944988590    4.70796271776208   -0.69165130645140
C         6.92096036676398    0.56751231078637    1.00973522038024
H         7.06728312019964    0.70176741403900   -0.04632837405814
B         5.26952578410027    2.57296678270390    1.08572437232659
C         4.61731844260916    3.76715109220072   -2.57342248143654
H         4.49810987181281    4.70656672889734   -3.09255066991790
C         6.79343370019505    0.15006526468406    3.33141306143382
H         6.81718777873542   -0.13710305729600    4.37326804511447
C         4.50431300211635    2.57311957426575   -3.26369749205284
H         4.30935149990298    2.57315965865247   -4.32544795150179
P         7.69934639615395    5.73726668484225    2.03479080010572
N         6.06580142274686    3.77688628924956    1.65263695670025
N         6.01519451795100    3.98816597117613    2.96551304801753
C         4.87422407043989    1.38313095983654   -1.21365950941728
H         4.91938441618381    0.43806584430451   -0.69183916655798
C         6.92102187264202    4.57834895060398    1.00964307186497
H         7.06732832713628    4.44404152149667   -0.04641791109132
C         4.61738538282073    1.37903150001990   -2.57353165452014
H         4.49822485143864    0.43965495652425   -3.09273975050952
C         6.79364586858265    4.99583424776555    3.33130607080405
H         6.81736948316635    5.28308763465536    4.37314277920104
Cl        4.50991387598580    4.19289518749625    5.57293079515610

