107
CSD_code = YURGOJ | q = 0 | S = 0 | Stoichiometry = C55H38F9OP3Ru | MND = 6
F        -2.70955926332907    4.20856695623301   28.74719120865856
F        -3.54904154934680   -4.15081842983347   25.38396505867704
F        -9.84083605928921    3.39837866244281   24.04900964469184
F         3.45702854529971    2.91020333034212   24.31617513872673
F        -0.79428693863609    7.03646939178765   17.07866607617401
F         1.18448916029321   -1.97752302494504   17.00185582368488
F        -9.85524207695584   -0.20205167279850   21.32600851077525
F        -6.06141285016418    7.84906743393252   18.70347225704162
F        -3.05319110108536    0.26482177576858   14.92274511767557
O        -2.94367812850529   -1.14880261821516   21.35897872036866
C        -2.97033902479368   -0.00263311689846   21.47977685939101
C        -3.74507386851280    2.35022055893918   25.24003702858131
C        -2.65151352487174    3.20483403744066   25.28110142247294
H        -2.07309849883461    3.36633746692316   24.38197959175604
C        -2.29497380835250    3.83532156449048   26.46026724054144
H        -1.44674348271445    4.50018059735853   26.50706388416785
C        -3.04686750474152    3.59778107153949   27.59584454954096
C        -4.13830289942591    2.74450855302512   27.58492409922886
H        -4.69826008020662    2.57846442214434   28.49180513220288
C        -4.48276177009657    2.12307699301688   26.40167431535028
H        -5.32924017859359    1.45188475278639   26.37997752619473
C        -4.13742656648139   -0.23842794393817   24.29058720010648
C        -3.06132963797258   -0.58807102353521   25.10446536383948
H        -2.37567955912001    0.17945034617927   25.43737491587871
C        -2.85779250701078   -1.90207070164657   25.47808975980657
H        -2.03100036150873   -2.18586665399392   26.11013370079749
C        -3.73557548584974   -2.86859994259380   25.01827521303197
C        -4.79667356635023   -2.55489713029660   24.18800186619620
H        -5.45010488887487   -3.33744600878892   23.83471537839177
C        -4.98656548235239   -1.23600469103083   23.81938090120807
H        -5.79906409611010   -0.97999226511237   23.15621649189171
C        -6.02254103463175    1.91804883597145   23.80608625816624
C        -7.02997852269435    1.15764686536368   24.38906136778949
H        -6.81952286168353    0.17923886724617   24.79398466726984
C        -8.32007371588294    1.65247794411680   24.46483937953781
H        -9.11626849219457    1.07144484630602   24.90343565801253
C        -8.58534285915869    2.91864608003195   23.97585506471242
C        -7.59672392290578    3.70668347928808   23.41209506786123
H        -7.83499644469037    4.69511414162538   23.05162100762746
C        -6.31997861189831    3.19089921066453   23.32686047868318
H        -5.52276797392496    3.77443432371810   22.88405473595954
C        -0.91660616743627    3.67377389100930   19.43158772115077
C        -0.33578674277722    3.62492055256638   18.16787672352957
H         0.07295612871585    2.70058854221392   17.78972716719360
C        -0.28942961933997    4.75792682601868   17.37544702693528
H         0.15656459248206    4.73509199709315   16.39334111738818
C        -0.82890857729216    5.93831718577792   17.85546136418877
C        -1.40610384327694    6.01823774105704   19.11119314906429
H        -1.81545298871866    6.95452657552872   19.45664577311507
C        -1.44365648171425    4.87932340759138   19.89160226367583
H        -1.89176641697379    4.90821222737227   20.87444749301116
C         0.37031697657287    2.50760336611402   21.64369294529301
C         0.96036974303134    3.74811931949699   21.84560269888828
H         0.61381856040784    4.61349274452063   21.30047038792827
C         2.00145755098457    3.88893979367320   22.74874135092479
H         2.46882699744740    4.84635434278020   22.91822719882090
C         2.44256826571241    2.77698239680586   23.44011699779984
C         1.87234733136800    1.52699881494298   23.25651532843144
H         2.24250320648809    0.68109468773784   23.81415609976813
C         0.83264337408423    1.40215732141855   22.35912250784114
H         0.36014323675410    0.43968965221263   22.20629286169424
C        -0.34983752740428    0.91806936380278   19.47245110067896
C         1.02285106325328    0.85025135361263   19.23350662044788
H         1.68688804191015    1.56516680184291   19.69809669617811
C         1.54299275811021   -0.12440926072865   18.40467324078744
H         2.60271582097057   -0.19220632178632   18.21443078498157
C         0.67864178489344   -1.02844142201653   17.80885164185949
C        -0.68727212221481   -0.97829714625280   18.01934173949379
H        -1.33332583480131   -1.69524445510173   17.53783674633972
C        -1.19155322628379    0.00032914821017   18.85586483521498
H        -2.25575497504167    0.05253104885683   19.03367611190932
C        -5.03591900330348    4.02575760859362   19.79720139816389
C        -4.70341879732336    5.10409340848689   20.60676265077588
H        -4.16137036450929    4.92927834027408   21.52530976847149
C        -5.04568242670781    6.39620190479480   20.25005190210326
H        -4.79085907966109    7.23894182804467   20.87363842454363
C        -5.72875038197114    6.59713269533678   19.06526704331095
C        -6.08402812075689    5.54191689818239   18.24039700690668
H        -6.62276423796439    5.73504802902098   17.32603756137718
C        -5.73798678683656    4.25871397136049   18.61308876443973
H        -6.01621635130851    3.42803958620610   17.97981958897376
C        -4.24879648933380    1.66930542453128   18.59409627530333
C        -3.40091333739533    2.42624627468598   17.78576563297937
H        -3.07100223346176    3.39604313773061   18.12984678241368
C        -2.99503681437808    1.96526488586449   16.55015879226791
H        -2.34054603136905    2.54767815723519   15.92128818289389
C        -3.44946612615381    0.72955270916312   16.12209954585794
H        -2.82005305738468    3.29857824422147   22.25699187453680
H        -1.88479131512147    1.49785591808531   22.90544525159098
C        -4.30603822485739   -0.03583560261007   16.89168839149410
H        -4.65426108901689   -0.98764389529659   16.52194579083956
C        -4.70106014603923    0.43806597798696   18.13088517585420
H        -5.37310922676494   -0.15960586161444   18.72784408252380
C        -6.24175071072643    1.60490440597908   20.57409597590438
C        -7.42227561149956    2.33759256605337   20.51026669827737
H        -7.39968189085506    3.38971350446623   20.27181585086561
C        -8.64111997452638    1.73494302093308   20.76382071532591
H        -9.56082093201069    2.29730775827036   20.72675605200450
C        -8.67302365559665    0.38839961754344   21.07458421706578
C        -7.51645140997570   -0.36763329003042   21.14760782008048
H        -7.57698837090550   -1.41795978786746   21.38964963352763
C        -6.30577386458503    0.25361544995968   20.90864382100521
H        -5.38951127838212   -0.31575602494754   20.99148505258866
Ru       -2.94537322392800    1.80872541210983   21.83381281593979
P        -4.24212486829071    1.48480072704022   23.70041574030982
P        -1.06662967957351    2.22094399616449   20.54360120246292
P        -4.57374430363374    2.31737522148371   20.28376313904408

