177
CSD_code = YURNOQ | q = 1 | S = 0 | Stoichiometry = C72H98AuB2N2P2(1+) | MND = 2
Au        5.38668731219743   30.23490481268971   11.35778930104901
P         5.63755761249627   27.99473963868655   11.84065882617428
C         7.87171090603692   27.39175397595016    7.58772579516803
H         7.20103527792743   26.64705642738365    7.16790748681734
H         8.83211350586134   26.92146511043225    7.78579691141955
H         8.02317363402663   28.17003319111010    6.84476570141487
N         5.05121964851186   27.02172313563674   10.56296047800036
C         7.29880980031121   27.97295270851965    8.88490741918480
H         7.31882505581421   27.18637340036888    9.64144132953609
C         4.79702955842939   27.85578685656836    9.40134437097776
C         3.47767500840361   28.16767956591939    9.03964605129619
C         3.25981080436296   29.06719513571872    8.00185911523745
H         2.24738034504057   29.30374730743363    7.71477130026688
C         4.30881260542951   29.66884165343463    7.33647115097828
H         4.11926410525572   30.38671843302047    6.55337655603250
C         5.60223114198327   29.32169755909353    7.66514895501509
H         6.42308619759563   29.76499023971243    7.12395202550617
C         5.86665435509318   28.40188586964378    8.67328012647066
C         8.18266179351519   29.12282489576595    9.36682369829390
H         9.19484164596518   28.76521895820497    9.54134767769943
H         7.79975814697212   29.53758902329557   10.30017749647972
H         8.21772883961167   29.92069130327472    8.62945089816204
C         2.26847519402266   27.56066132483680    9.71223796679549
H         2.60918786083722   26.86709181493488   10.48635475792385
C         1.43281817914036   26.76805824911324    8.70279042739451
H         2.05021471409319   26.05748685895695    8.16264325850567
H         0.96548971319636   27.42974080842949    7.97802030097454
H         0.64603344028533   26.22363664440135    9.21947043167541
C         1.39470267342497   28.64330895573049   10.35630847116076
H         0.63908490067948   28.18542351792469   10.99059976209332
H         0.88223610723884   29.22651500733865    9.59593343231017
H         1.98616769147903   29.33221193448951   10.95769217011679
C         4.84891404607768   24.83703263422552   11.94961655421015
H         5.32509944684117   25.48753717501762   12.69799290752931
C         5.57472027270327   23.48683816186475   12.04306770796376
H         5.08532503794680   22.75584917373281   11.39910366034133
H         6.61096562351881   23.58375412783612   11.71278177467555
C         5.55770129264981   22.96567580449219   13.47771009836219
H         6.09306562968005   22.01566889794121   13.53066824022795
H         6.07332698574689   23.67635530900833   14.12956027330100
C         4.12389275622220   22.77998797429850   13.96125438982725
H         3.63074264842860   22.02179935350226   13.34911718377584
H         4.11916922829417   22.42933478223158   14.99479774343428
C         3.35903582377104   24.09412590446269   13.85346732892455
H         2.32130968002199   23.94782926677802   14.16083875025168
H         3.80429268259942   24.83112687222242   14.52643052768181
C         3.39681439189014   24.62492495473564   12.42335700589935
H         2.84371125041451   25.56579369027621   12.37690879918857
H         2.90114872840299   23.91334082661832   11.76255239470209
C         4.69814405349336   24.89578246784356    9.11966409716079
H         4.46271481532900   25.65520985988973    8.36308322428263
C         6.03347304997643   24.25860543474819    8.68080470900137
H         6.84408606373590   24.98534814337614    8.75849323413961
H         6.27141195754111   23.42022144293622    9.33614802664354
C         5.93575571178071   23.75178546090235    7.24461670547672
H         6.88949786717450   23.31290222299533    6.94377181720846
H         5.72704501043681   24.58983652524150    6.57409163986202
C         4.82431433168379   22.71518149363892    7.11843434020110
H         4.74139312773681   22.38181547754469    6.08252871562742
H         5.07119093344576   21.84471665968840    7.73032390608230
C         3.49621181428392   23.30151085664449    7.58621557560443
H         2.71438506967363   22.54166052053446    7.52794120880869
H         3.21072217081660   24.12343681189699    6.92410948493267
C         3.61278078172725   23.81325064619709    9.01983953852710
H         3.86594295085281   22.97484745031421    9.66912845966008
H         2.65145074250485   24.21067480690566    9.34873996000454
C         7.33123778600713   27.46569786366296   12.23763878512139
C         8.07647887387663   28.36287381330529   12.99866762305545
H         7.62181763660451   29.29658658135858   13.30920014054129
C         9.37408554649213   28.05419725784895   13.35992896565361
H         9.94722909595267   28.74523225168200   13.95912145902679
C         9.94026949742995   26.85690218463649   12.95096119267748
H        10.95476760506763   26.61716961314134   13.22961093550285
C         9.20556879936648   25.96962978815841   12.18175324625377
H         9.64702513655876   25.03856742743254   11.86018523137766
C         7.90307228378160   26.27016985132750   11.82327148755532
H         7.33175938666435   25.57866593367809   11.22194043028396
C         4.75065186946091   27.67124667546993   13.40363199168356
C         3.37594159045227   27.88330625122497   13.41065884457288
H         2.87549258933246   28.12710060907371   12.48630038959332
C         2.65648752556460   27.78074958039169   14.58665612389858
H         1.58698772103928   27.92993790715082   14.57800717499932
C         3.31032482142775   27.49376554150552   15.77380664808191
H         2.75263199231657   27.41800151197935   16.69459075963503
C         4.68293059507829   27.30380255480016   15.77626724664556
H         5.19491736791825   27.07945842266899   16.70002070642732
C         5.40474598455733   27.39149525982697   14.59964781726788
H         6.47253252160113   27.22808390465152   14.61347302205885
B         4.86096551503266   25.59627994783195   10.54541346798213
P         5.13604230431114   32.47528989490507   10.87594817493703
C         2.90184468094795   33.07829010501894   15.12888655147163
H         3.57251710636482   33.82298997212796   15.54870818432915
H         1.94144327029235   33.54857736344249   14.93080718957794
H         2.75037890499156   32.30001246927654   15.87184724818537
N         5.72237613842655   33.44828803465368   12.15366142445702
C         3.47475843730698   32.49708936093657   13.83171076755936
H         3.45475066522706   33.28366619323785   13.07517521092716
C         5.97654382138896   32.61423130402254   13.31528943308302
C         7.29589155892459   32.30232122709980   13.67698613089080
C         7.51374292908916   31.40279035495307   14.71476285753934
H         8.52616920333958   31.16621767657758   15.00184603789464
C         6.46473058581355   30.80115538572523   15.38014469522456
H         6.65426797043436   30.08326824176860   16.16323234202428
C         5.17131811651365   31.14833151532860   15.05147759653984
H         4.35045635268919   30.70504464538562   15.59266984113532
C         4.90691126708710   32.06815881676852   14.04335692763705
C         2.59091046448380   31.34721625400758   13.34978731028515
H         1.57873568979553   31.70482050665328   13.17524187916297
H         2.97383035298211   30.93244479834238   12.41643829264339
H         2.55583347141019   30.54935174662466   14.08715992865466
C         8.50509900090068   32.90932079198548   13.00439033445257
H         8.16439257383149   33.60288698320981   12.23026768037092
C         9.34075610883079   33.70192422455294   14.01383628778703
H         8.72335992192865   34.41250302718875   14.55397430590941
H         9.80807380997208   33.04024242352926   14.73861419118973
H        10.12754773769752   34.24633674162488   13.49715806568289
C         9.37886274297691   31.82666122131482   12.36032778491355
H        10.13448946952192   32.28453718711837   11.72603999219483
H         9.89131929781760   31.24345214438615   13.12070713102212
H         8.78739346101029   31.13776364011134   11.75894278665663
C         5.92468326264694   35.63297557577815   10.76699757950924
H         5.44849893950802   34.98247144858592   10.01862246672295
C         5.19887263909128   36.98316782894926   10.67353556548392
H         5.68826482319595   37.71415880713595   11.31749685166917
H         4.16262559374055   36.88625076271356   11.00381770903295
C         5.21589615877306   37.50431981918926    9.23888928449542
H         4.68053001755937   38.45432599768827    9.18592271153716
H         4.70027444602720   36.79363570835314    8.58704048562172
C         6.64970688170148   37.69000720206320    8.75535044041428
H         7.14285312980821   38.44820058712177    9.36748520988536
H         6.65443374521108   38.04065400751136    7.72180581507879
C         7.41456668430157   36.37587150445252    8.86314731899688
H         8.45229426677874   36.52216887108494    8.55577929762785
H         6.96931455118273   35.63886622606250    8.19018544904267
C         7.37678445937048   35.84508055745558   10.29325989977629
H         7.92988814603012   34.90421190803838   10.33971463722030
H         7.87244706638398   36.55666747180023   10.95406289949955
C         6.07543990017033   35.57423037978059   13.59694984634795
H         6.31086215473814   34.81480304536703   14.35353336335434
C         4.74010857186210   36.21141165105961   14.03579643505355
H         3.92949313242369   35.48467177263658   13.95810081041279
H         4.50217731943791   37.04979567660769   13.38045022315938
C         4.83781733165408   36.71823259322623   15.47198417103689
H         3.88407464704049   37.15711777423291   15.77282272535080
H         5.04652317696836   35.88018170685231   16.14251099121448
C         5.94926006255822   37.75483460814159   15.59817041492365
H         6.03217534181744   38.08820380928756   16.63407582512355
H         5.70238857569386   38.62529875205466   14.98627752291558
C         7.27736531339773   37.16850253153694   15.13039927082530
H         8.05919134976746   37.92835198528726   15.18867559226054
H         7.56284991468217   36.34657784290280   15.79250950860582
C         7.16080626892713   36.65675862199733   13.69677672891710
H         6.90765207509522   37.49515951009309   13.04748113332379
H         8.12213760903772   36.25932906323604   13.36788381187579
C         3.44236940576688   33.00427575462015   10.47899248137358
C         2.69714187544416   32.10707147250417    9.71798373338580
H         3.15182066181971   31.17334994929931    9.40748896189120
C         1.39953986231104   32.41573073478265    9.35669702080214
H         0.82640310337115   31.72468060033694    8.75751392851092
C         0.83334150435168   33.61303263555942    9.76563019574668
H        -0.18115906984938   33.85274814486093    9.48697425129484
C         1.56802734885969   34.50032873465352   10.53482615327238
H         1.12656004038509   35.43139314179799   10.85637102432182
C         2.87052300829034   34.19980454962845   10.89332493464651
H         3.44182940254059   34.89133186333464   11.49463765064824
C         6.02295495120244   32.79874496510016    9.31298010807844
C         7.39766774051065   32.58670130481662    9.30595462643422
H         7.89812000050542   32.34291855235990   10.23031236864692
C         8.11712128728566   32.68927536153904    8.12995502380194
H         9.18662045801604   32.54008862716165    8.13860280868406
C         7.46328013048553   32.97625818018604    6.94280699092719
H         8.02096779257438   33.05200961037495    6.02201986093644
C         6.09067178948384   33.16620532496133    6.94034609392226
H         5.57868085476127   33.39053884098128    6.01659320441292
C         5.36885627754582   33.07849696455185    8.11696705858454
H         4.30107144966404   33.24191417730109    8.10314329408643
B         5.91262965757038   34.87373440775279   12.17120232139177

