79
CSD_code = YURSAF | q = 0 | S = 0 | Stoichiometry = C34H32FeN10O2 | MND = 6
Fe       12.35138752867639    3.78724330452234   12.15740435480598
N        13.36726678501037    3.62790163354389   13.65282610020500
N        11.21921313109363    3.80193573267865   10.72612165119517
N        11.29550618446175    2.43888371488912   13.16331606462152
N        13.15041578929677    2.33223186452878   11.05118394611117
N        11.28782713727307    5.35828169676847   12.53781665826653
N        13.77063407618429    5.08509631349233   11.78115549858373
N        13.08206543893994    2.74865750295646   14.61029921173361
N        11.25349716199582    2.83618510379234    9.80766819647106
N        10.37685444368289    5.63557640190489   11.66264772993861
N        14.60487406168918    5.25341689782221   12.75698490052489
O        12.62480217853972    0.99924470692090    9.32088609104830
O        11.40710390747310    1.15175261877300   15.00131009737796
C        14.41658951295818    4.44430552069742   13.77985154173735
C        15.31045364447204    4.47474362766946   14.98581079918947
C        15.94242815849763    5.85388575118085   15.14386056206333
C        16.37861540384374    3.38284928450284   14.87791750690354
C        10.27703959109277    4.74016301815203   10.69473127664077
C         9.20303513940878    4.84327078367522    9.65139810150660
C         7.82971582235110    4.93498587100033   10.31546814154264
C         9.46453930919161    6.06925429260482    8.77415675280738
C        11.96525872188909    2.12913754941245   14.27534077293629
C        10.29306231363807    0.78808910823147   14.29271996328793
C         9.35116881822053   -0.17609134921320   14.57895130844762
C         8.32200363644152   -0.33010085100561   13.66225901304509
C         8.24830736622786    0.44879483975375   12.51063315848583
C         9.19107822792670    1.41849658009877   12.22365894240690
C        10.22341160311604    1.58769939127886   13.13474063884553
C        14.09350733406468    1.34366825144365   10.99261758546157
C        15.21250083357043    1.08185398045820   11.76800208791163
C        15.97398316842247   -0.02011715225472   11.42553630486976
C        15.64044218758161   -0.83611971014406   10.34787352135172
C        14.52489155962321   -0.58484281622947    9.56249986099816
C        13.76403201811060    0.51150948866671    9.90482293786029
C        12.30519833261036    2.07647240325814   10.04988287596445
C        11.95505277412585    6.07175511515805   14.74687340796714
C        12.34143817744204    7.08031925925567   15.60650335889938
C        12.38500782908618    8.39595616398032   15.17054230605774
C        12.01809497870098    8.70223193633141   13.86942992665027
C        11.62597142309362    7.70345252779314   13.00219777314203
C        11.60638755440157    6.37167195047301   13.42896476461892
C        14.27762503791870    7.31870081209738   11.00893155507175
C        14.25781541117059    8.26011960076791   10.00138778697228
C        13.79327169059100    7.92763100791264    8.73798768306365
C        13.35784359304669    6.63563850780915    8.48464892940672
C        13.36715758945548    5.68577440347925    9.48541776774407
C        13.81846329069755    6.01836034394951   10.76496835018891
H        14.67964278705433    4.24953985495096   15.85242985805712
H        15.17180081339433    6.61788992594334   15.21108714517810
H        16.55000507325654    5.88556709706215   16.04511283389599
H        16.57023839243742    6.07469621047281   14.28546490661252
H        15.90717473541917    2.40383939878184   14.83667278032587
H        16.98085414986135    3.53149830311479   13.98399956457363
H        17.03158640524326    3.41337800569492   15.74707516689582
H         9.26358865535147    3.93987444918643    9.03736567195193
H         7.05193523283237    5.00696957908079    9.55869690540661
H         7.63740418703203    4.05762649774132   10.92891013361690
H         7.78780869375107    5.81485428892827   10.95216623157761
H         8.70511377777884    6.14472906117222    7.99943444242153
H         9.43960102422559    6.97011449432248    9.38235943269001
H        10.44107761592848    5.99745788788487    8.30226863194323
H         9.41961509780354   -0.77775930446242   15.47026195123070
H         7.56274598937378   -1.07452638911380   13.84562189352045
H         7.43254183601125    0.28886257073058   11.82178443909026
H         9.14474196919597    2.01372747142235   11.32672436843099
H        15.46278893022476    1.72063415104995   12.59844476926461
H        16.85207168136699   -0.25493501351803   12.00816571174767
H        16.26446591777635   -1.68529212945932   10.11594133419460
H        14.26037662651346   -1.21133938836483    8.72661402130482
H        11.89639744908892    5.05068673079988   15.08964417392087
H        12.60755843652364    6.83994885420658   16.62523455414475
H        12.69939304360858    9.17897565488164   15.84413523758249
H        12.04476630416024    9.72623481977774   13.52718238452592
H        11.35092373942719    7.92100099605413   11.98157705573376
H        14.62499795664834    7.56197108149875   12.00097032540653
H        14.60150295374679    9.26411836366228   10.20276503082937
H        13.77338976952269    8.66907299898995    7.95354411360714
H        13.01425122907719    6.36727657576186    7.49617287128299
H        13.04689964905779    4.67557991690949    9.28666429410117

