79
CSD_code = YURTOW | q = 0 | S = 0 | Stoichiometry = C28H35BF2N8OS3Zn | MND = 5
C         7.95921566017304   11.60601635392923   -2.40818043008081
H         7.06043674970689   12.12787015270793   -2.72489265404108
H         8.23300081781989   10.85916443088763   -3.15511305356138
H         8.77735003475523   12.32459610498805   -2.30910733747652
C         6.60090057752539   11.20353491517327   -0.39096272117916
C         3.67744514972948   13.04389624380014   -0.38637959582821
C         2.58870696002457   13.10631300005098    0.56377628047186
C         2.01258365412125   11.53192191955131    3.57783406344081
C         0.20041626953821   12.41452835288830    5.05207053437689
C        -0.48865353626041   12.13481179803194    6.23516758730053
H        -0.23562546483615   11.24947879406949    6.80141991041421
C        -1.48180421937025   12.97844737812156    6.68724258578726
H        -2.00561757774981   12.75505173340989    7.60510266930443
C        -1.81354611296556   14.12415683598216    5.97198528140917
C        -1.12913030964109   14.40224473403744    4.79438684487140
H        -1.38062396593687   15.29187506232835    4.23547245852905
C        -0.13387865272853   13.56236293510388    4.33521082756621
H         0.40247278371703   13.78320517984975    3.42881659939085
C        -2.86766066904871   15.03506654447241    6.46160795424160
C        -4.19690959480538   14.81753070284579    6.10120216072339
C        -4.79232653405948   13.81388413970350    5.28562498413104
C        -6.14718811317876   14.08425405830241    5.27283656631112
H        -6.90582585951950   13.52885719448358    4.75602743141401
C        -6.37176715676842   15.22231407646809    6.05850707231403
C        -4.11995829656933   12.69246325832125    4.57822809076862
H        -3.62180651696890   12.02984275082788    5.28461806047919
H        -3.36307496942333   13.06376142076485    3.88894291276342
H        -4.85616161327371   12.11972568094661    4.01901930106193
C        -7.65419080820697   15.89902567143903    6.35091703598024
H        -7.82585346659187   15.91257117956601    7.42641387101607
H        -8.47720575639298   15.39425494168770    5.85306608230241
H        -7.60535932806961   16.93691886925852    6.02453788308563
C        -2.52657245794072   16.10874619412385    7.28242011332388
C        -1.26561675651140   16.53590300524882    7.78905491367565
C        -1.52013081949245   17.65824322845303    8.55303482133388
H        -0.79884149654945   18.24491477153738    9.08832309091006
C        -2.89826124257627   17.90872625139959    8.51453587134220
C         0.06831706262886   15.92031974335872    7.56324209288454
H         0.32596300250456   15.92429710240572    6.50513390464915
H         0.08118106649439   14.88434819234318    7.89862133521284
H         0.82499896177431   16.47711657417463    8.11093000841947
C        -3.65311586703232   18.99556237365495    9.17533064189760
H        -4.18888744478557   19.57885324973046    8.42770932319091
H        -2.98420517778822   19.64137860462657    9.73693725669189
H        -4.40203875993493   18.57030898820588    9.84211817743467
C         3.68014939632361   13.89886251529104   -1.61492647092057
H         3.50101671326087   14.94161379336543   -1.36086447821573
H         2.90229976238258   13.57452969866118   -2.30533255532493
H         4.64596029136669   13.80347085651417   -2.10387313079951
C         1.39895035493215   13.97592536727034    0.30627109314997
H         0.60498577733618   13.71218119518664    1.00031207029768
H         1.04622632270081   13.85268485786340   -0.71485861759596
H         1.66050849715797   15.02354303848368    0.45447799176797
C         1.78821643411134    7.77042768117495    1.51182694004909
H         1.96452183295794    8.30626222066876    2.44081951054576
H         1.69741560640842    6.70482331772603    1.68585484020152
H         0.89108487020470    8.14763872169660    1.03139712558299
N         7.68138451050245   10.96405060219346   -1.15116935188767
H         8.38788879331336   10.36961553184129   -0.74630786392197
N         5.70459171762344   12.04867265414455   -0.84926692210699
N         4.62710914300353   12.21696958344947   -0.09283675064799
N         2.72720874517163   12.38795972793680    1.63078858017211
N         1.82850351698724   12.39487065914944    2.61988279633675
N         1.19241046051281   11.53229349705085    4.66322615849778
H         1.39462237201002   10.78429675825736    5.31478729477650
N        -5.20458201373593   15.65301446399651    6.54714824152128
N        -3.49000306674196   16.98093185455354    7.75603864679445
O         3.38467172035126    9.54503313129997    0.37832354685621
F        -5.43134606111920   18.02776026891382    6.80918552486245
F        -5.70853184891532   16.72486749512837    8.63465683275467
S         6.57640811962354   10.34592514924216    1.10467123605575
S         3.19642819088610   10.27574111346560    3.64117867022936
Zn        4.27357260293834   11.01394464659427    1.53330506183429
B        -4.99638508227177   16.87951412849975    7.45460768600108
C         4.48157827575789    7.41382815373975    1.51440673932303
H         5.45187927194278    7.67829594034949    1.10438237278268
H         4.37726574150269    6.33608252959043    1.56600393348281
H         4.36617592315994    7.86562491036453    2.49485334094598
S         3.20196290288969    8.06807924300988    0.38523909843556

