75
CSD_code = YUSGIC | q = 1 | S = 0 | Stoichiometry = C24H40Cl2N4P4Re(1+) | MND = 6
Re        1.65662636973402    3.25201871097598    4.12541588701562
Cl        8.13148458902426   -2.09220974525312    3.78362155015291
Cl       -3.13528502412282    7.96331992118840    9.25009412722497
P         0.34306413070774    2.86525105917978    2.08897134259128
P         2.59447531780147    5.04661577083406    2.80065644493363
P         2.95801068648916    3.64408663250839    6.14059150589743
P         0.68912082223469    1.49631624135573    5.46231397310457
N         2.92649112338757    2.08993894192943    3.44671085190345
N         3.54623981277862    1.41842827485643    2.64337611795232
N         0.36318725344822    4.44312771014650    4.71934085355551
N        -0.51683515683145    5.27719326492779    4.72143295258749
C         1.12210120702459    3.89016890853509    0.76520735531994
C        -1.39690421926110    3.40614851368102    2.06443545787271
C         0.29593013713545    1.22018038402534    1.30802572940671
C         1.51279377469808    5.25552023116459    1.32094453607172
C         4.25115069913631    4.80966375528066    2.07959450030564
C         2.67282980781886    6.74356449884376    3.46051008690631
C         2.67470558898567    2.21116011770515    7.27994737873611
C         2.50304157156843    5.07369382543605    7.17856029431440
C         4.77828013337743    3.76359559123831    6.10170283270841
C         1.22106930817577    1.75257100332628    7.21712308268519
C         1.18807027955611   -0.22573310858691    5.12768946241831
C        -1.12138830487278    1.34423638471891    5.61295511685898
C         4.64650886927953    0.62416035027878    2.95867983692581
C         5.00948302299046    0.31813054204352    4.27369192321789
C         6.07599734177652   -0.51519345858838    4.52934468578796
C         6.79548016562905   -1.04947759894499    3.46712435326863
C         6.44636880944105   -0.75402948614921    2.15459662527240
C         5.37370523651559    0.07466588507748    1.90152531525038
C        -1.04754840996496    5.91970695544903    5.82867076105495
C        -1.53843884251368    7.21961538542367    5.67922256621005
C        -2.16690409219578    7.84871539496754    6.73162679658156
C        -2.33721801686609    7.17740544896028    7.93744784621287
C        -1.87825264179494    5.87621174334080    8.09264019849105
C        -1.23214141587890    5.25415199986267    7.04614935363667
H         0.43066643235775    3.98460170528390   -0.07745028673912
H         2.01237946730714    3.34947868912386    0.42882003912953
H        -1.46184824015145    4.43112130394782    2.42589581720317
H        -1.79553594964394    3.33533375004490    1.05291090320865
H        -1.97571619116532    2.77023313253824    2.73228895741652
H         1.30917226922116    0.82337517992675    1.26410567340213
H        -0.32399947325394    0.55418732104420    1.90663846067664
H        -0.11821613657757    1.29798467702893    0.30318359918461
H         2.03290127456129    5.86045716457061    0.57189636201732
H         0.62123567139421    5.79789742205601    1.65198493481137
H         4.27703632663183    3.86843477205647    1.53298594316259
H         4.48929989147992    5.63724949600808    1.41210600167264
H         4.98495898139160    4.76160084215575    2.88287005592889
H         1.71606565783109    6.99797237822651    3.91379233513398
H         3.45335549677717    6.80001280339161    4.21815820560120
H         2.89679564452299    7.44267630339966    2.65511814650934
H         2.95512234579950    2.49940181409322    8.29760714553681
H         3.33675863046285    1.40148969099288    6.95977552701981
H         1.44170119844005    5.03987499213554    7.41738532521896
H         3.09186199098070    5.06821654209767    8.09539411930902
H         2.69893825605034    5.98986896880775    6.62375987559613
H         5.18934179903147    2.98543317296944    5.46155511208722
H         5.05617641726957    4.73569033536664    5.69618484545119
H         5.17920444556945    3.66344030026646    7.11006710856416
H         1.07193031876698    0.82576149230098    7.77943979727122
H         0.57020630633707    2.52147999216967    7.64350123538368
H         2.27004550107855   -0.32161225333017    5.19136065989084
H         0.71286612078332   -0.89579057201989    5.84373562895007
H         0.88095163857682   -0.49011346626714    4.11693465836769
H        -1.56480172176659    2.32670336703521    5.76405945915102
H        -1.51418863391052    0.92055237638584    4.68940551166572
H        -1.37298935475767    0.69102540604004    6.44830924459182
H         4.43425480832351    0.74656331621460    5.08383632140876
H         6.35664654093695   -0.75597903792087    5.54287688662431
H         7.01394945045105   -1.17729954648625    1.34142817823923
H         5.08953157552554    0.31088723250877    0.88774084599094
H        -1.40450279752805    7.73013759828789    4.73775869922174
H        -2.53395498509367    8.85676292533775    6.62378920244901
H        -2.02773109162456    5.36095618449134    9.02852270977272
H        -0.88196981679776    4.23501217798100    7.14332505149354

