44
CSD_code = YUSKEC | q = 1 | S = 0 | Stoichiometry = C21H16Cl2N4Re(1+) | MND = 6
Re       15.93807326409106    0.45587448888399    3.61342009482333
N        15.53474032938882   -1.31937422943903    4.67200078744567
N        15.71907667641772   -0.92977147088041    2.12014862089376
N        16.23201760456533    1.59329286745089    1.86660321425245
N        16.14033881553897    1.64582316937684    4.88725978876022
Cl       18.17296578909874   -0.28441144484156    3.40635242025555
Cl       13.61641169287130    0.64053307722211    3.23077221972145
C        15.44922467104929   -1.44535899058526    5.99457366937521
C        15.17717850307124   -2.65009228569542    6.61782198539453
C        14.98388383909729   -3.77953997396068    5.83680806230957
C        15.07129462331498   -3.65448548084041    4.46165214544564
C        15.34821527289253   -2.41252925526139    3.89812282015427
C        15.45590186380899   -2.19520748932305    2.44779846926746
C        15.31034462946983   -3.16439728749373    1.45687651030956
C        15.44562009753975   -2.77938596756876    0.13185474358964
C        15.71818036084729   -1.45799537145521   -0.18683131825824
C        15.85173503408949   -0.53875601773761    0.85231819123656
C        16.13901516188147    0.89631449305671    0.71139549874786
C        16.30689566082079    1.52019550326567   -0.52125334177155
C        16.57290161539395    2.87693291188157   -0.57273594902711
C        16.66559134091479    3.57891468114161    0.61968169210442
C        16.48913450822095    2.89856478760469    1.81107502688834
C        16.31057985307090    2.54826608676497    5.84259074485632
C        15.26866088413619    3.44465703371358    6.17513322122814
C        15.46320049555190    4.38095174156803    7.16484507063448
C        16.67596989665715    4.44682887262430    7.84243745555178
C        17.70706923291214    3.56865172388610    7.52620586312889
C        17.53992727737096    2.62611584017559    6.53757040923197
H        15.60438488209134   -0.54391449170767    6.57193171942671
H        15.11879867303271   -2.69635758495163    7.69274559607965
H        14.76963041285895   -4.73588405390724    6.28672592185211
H        14.92517312320905   -4.51404519174860    3.82898976246181
H        15.09883200708526   -4.19049212782907    1.70467619111584
H        15.33851304891576   -3.51073267635985   -0.65394814989204
H        15.82335072667263   -1.15856139257345   -1.21555959583449
H        16.22892672543691    0.94832701497025   -1.43083892718687
H        16.70428759163214    3.37328386679055   -1.52102742140232
H        16.87079851285566    4.63663037346342    0.63186995331207
H        16.55517007050381    3.41401488971832    2.75973035710672
H        14.33830260653454    3.36846788413245    5.63360867072801
H        14.66858336937953    5.06636517641247    7.41613639441074
H        16.81773880653980    5.18340314845665    8.61793126352878
H        18.64469833954862    3.62605594958817    8.05714532521146
H        18.32196210962129    1.93302720200600    6.26808482252922

