35
CSD_code = YUSROT | q = 0 | S = 0 | Stoichiometry = C8H19B7Ni | MND = 9
Ni       -0.26314254788274    3.20135863979249    4.74970609980953
C        -0.35161757860864    4.77286282236501    6.03416391023924
C        -1.01658970693740    4.45983374868322    7.36496025864015
C         0.07588218565077    4.30296484339145    3.12952772962914
C        -1.08282204120223    5.72770964944054    5.15696108946341
C        -0.41021177860420    1.64020067676323    6.06006520599490
C        -1.19509559171936    1.43123613189180    4.92564526081372
C        -0.54555019803031    1.56779207680224    3.67860419418619
C        -2.69166203602298    1.30446804920944    5.00508552326979
B         1.19352544401782    4.70068333527308    5.67448516797046
B         1.49647673318173    4.49641709347047    3.83154954811295
B         0.39152736637901    6.31143838673028    5.85377141968579
B         0.71090311340200    5.89365865527915    3.04043335914207
B         1.57379512670986    6.08140072067097    4.58592251843887
B        -1.00380097652968    5.40825362296835    3.51854702833635
B        -0.10627061955191    6.80384557660263    4.25153127739670
H        -0.00402926840535    3.79234383992215    2.16951535437378
H         1.94128570415008    4.23261102440965    6.45535062266619
H        -2.03321429600262    6.08845579995336    5.53865806055667
H         2.44451627604433    3.91350568344916    3.44487894455618
H         0.37009269121064    6.99029075411309    6.81024777281524
H         1.01764866602579    6.27227456640414    1.97244128648767
H         2.58889285037451    6.67286342788890    4.65068603126168
H        -1.98201710156207    5.58430618426222    2.88665286897962
H        -0.47597521987277    7.91358559607865    4.12864893913135
H        -0.86739025070013    1.58870515675311    7.03998621272482
H         0.64563816752566    1.37024582669740    6.03598754482599
H         0.47341966874008    1.19520632594176    3.57690011123044
H        -3.05979353974903    1.53946562750185    6.00179566314212
H        -2.97041793579619    0.27574956443104    4.77324913431369
H        -3.18305326031008    1.95418270108239    4.28235340158735
H        -1.14260907719121    1.47982021719594    2.77709966432125
H        -0.35823895476218    3.87638001386278    8.00583715130272
H        -1.95262967561346    3.91397983665852    7.22908047040224
H        -1.25897233835764    5.38850382405963    7.88617117419141

