34
CSD_code = YUSRUZ | q = 0 | S = 0 | Stoichiometry = C9H17B7Ni | MND = 9
Ni        2.32904771423081   -0.06914430371246   -5.64034182955794
C         4.13852743924856   -0.78992640732166   -3.58860288830062
C         3.12879890467316    0.27978753206010   -3.83097099438077
C         4.00626192348881   -0.90801584852515   -6.26408742045480
C         2.08806550594427    0.46150643391796   -2.73943671783493
C         0.28014774772373    0.54897440030516   -5.49018682969043
C         0.68783522031006    0.87582938682998   -6.79896421000309
C         1.14629904161142   -0.30638757592858   -7.39254960779482
C         0.87417949722191   -1.40400224367911   -6.49629767214521
C         0.32104173200946   -0.87641885148644   -5.33782253455743
B         5.43512569672654    1.11421461355504   -5.08530353365574
B         5.72140679153970   -0.46874401722477   -4.17226221846157
B         4.74145268463359    0.81960074100121   -3.50267714019638
B         3.68500540475189    1.42142310599525   -4.81858791940156
B         4.36206888061989    0.65807989964136   -6.39290493670403
B         5.63234889981781   -0.46650074930752   -5.89490140067525
B         4.56477652501481   -1.62013896152206   -4.95369983155025
H        -0.20509072578598    1.22538544684555   -4.80242546301990
H         0.64841442820141    1.85060982763137   -7.25415617360407
H         1.46094856495868   -0.41750613143388   -8.41906988330834
H         0.96826196588749   -2.44847332483667   -6.74734880670942
H        -0.09253524573146   -1.43168939662569   -4.51145594974009
H         6.21709674540599    1.98167638064451   -5.21364937391137
H         6.63397845123113   -0.83717593799361   -3.53127153833657
H         4.28776079733692    1.21662416236748   -7.42588422473200
H         4.01558228982919   -1.35991513377106   -2.67407654875060
H         3.84779854781183   -1.50312396771688   -7.16541817113193
H         1.42799138550287   -0.40356579530062   -2.66357107413674
H         2.58546559424786    0.57455113428906   -1.77397768207863
H         1.48299923679551    1.34997291973416   -2.91042943488921
H         4.70191769041997   -2.78497279102215   -4.88027445310971
H         3.17266867496563    2.48212070593905   -4.82201653781395
H         4.89450437708898    1.33601253220701   -2.46201248335623
H         6.45614761226742   -0.82536778555597   -6.64816451600657

