32
CSD_code = YUSRIN | q = 0 | S = 0 | Stoichiometry = C7H17B7Ni | MND = 9
Ni       -0.12837971899657    8.01588647626798    7.00985643956124
C         0.03194298465394   10.00260611132089    6.61724451314820
C        -0.56979316945973   10.89883133632261    7.68775294998995
C         1.28422734100521    7.46639012378375    5.72072410251803
C         1.50904276327474   10.08904899956565    6.45959641162157
C        -1.74032071232079    8.01405283993510    8.27293587337165
C        -0.75064133488919    7.12809938091444    8.69067882571517
C        -0.26778989040127    6.18544897344014    7.76715217738989
B        -0.67220167554713    9.43357156630550    5.31021057276264
B         2.27930685506055    8.64703616009204    6.11313405293540
B         0.15828707898572    7.87837427382635    4.66495615690097
B         0.56795693496928   10.73984665309306    5.16024320127533
B         1.85961080721172    8.31819965783510    4.34663798171909
B         0.53676115516583    9.45077240872931    3.97851963840412
B         2.09698790107951    9.94490790906722    4.85911906223898
H        -0.27549960671852   10.58229339148525    8.69080078119380
H        -1.65646526165310   10.90822674272913    7.62671138867772
H        -0.21486353026279   11.92310779924649    7.55635109255166
H         1.62740739590978    6.43433736212159    5.79323508537765
H        -1.83131562128173    9.59242907308010    5.17035797780863
H         2.01965160528915   10.76369295741455    7.14002377113218
H         3.31733449959633    8.45040239272787    6.63280905375029
H        -0.47016038034295    7.05629015368250    4.10133464778726
H         0.37395218486458   11.89415148166139    5.08631961336992
H         2.54166223797928    7.71283048956029    3.60789052788977
H         0.24762096645140    9.71291996368521    2.86862509085329
H         2.99767031872632   10.63005619609060    4.53907816735744
H        -2.46990058279107    7.68441451041571    7.53323338347379
H        -2.09521619257539    8.77868936707045    8.95116509552794
H        -0.22426384292473    7.29538274699066    9.62646677624073
H         0.55066126671565    5.53848182123204    8.06024975300653
H        -0.97067277677393    5.73432068030704    7.06628583445006

