117
CSD_code = YUSWAK | q = 0 | S = 0 | Stoichiometry = C54H51MoN3O4P4 | MND = 6
Mo        0.86976036752640    2.28556038698979    3.41405830293237
P         2.22960675578338    0.44894236221601    4.18887120630057
N         0.88565403768838   -0.38276584925602    4.86790085077780
P        -0.40804472852896    0.63760340298560    4.51093003619680
P         2.55318948380160    3.68766521208434    2.55890289623405
C         2.76502796897782    5.21295946487660    3.56260273892920
P         3.50154506732726    6.69520709193719    2.75777397601130
N        -1.04493948601395    0.97362399680900    6.06376334312475
N        -0.32408263461576    0.68527871947919    7.16445072912975
O        -1.28959664712661    4.44614100934444    3.05224889247849
O         1.18256504679175    3.59284963755126    6.18958116842945
O         0.49790335878149    1.36868744731374    0.48689179742393
O         4.84597972200437    6.52252807007880    2.20117192687056
C        -0.47712323346362    3.63707875757550    3.13108638744291
C         1.10447843163877    3.06030543455770    5.18055992982224
C         0.63393993413156    1.64907665734483    1.58992812929738
C         3.09824538560601   -0.87037034420277    3.27622295786636
C         2.55073786052217   -1.19293986333830    2.03802160554798
C         3.10913678731673   -2.18438895878594    1.25526756510431
C         4.22961086768825   -2.86486626346149    1.70531547834342
C         4.77518731607833   -2.55639925492021    2.94032352797569
C         4.21479702867785   -1.56505822969302    3.72709611767093
C         3.35187686147537    0.85625736872446    5.55260744769660
C         2.84698427017613    1.12585355015875    6.82157221613111
C         3.68363045299947    1.60810656246100    7.81087042289076
C         5.02121476681171    1.84769638390707    7.53943765864569
C         5.52157703931818    1.60699566177189    6.27040512349177
C         4.69177441874264    1.11883176746544    5.27790395948065
C        -1.71915389114385   -0.47812039161290    3.90103715594481
C        -1.80215406964738   -0.65415972424599    2.52489516483306
C        -2.74042550241334   -1.51307841178451    1.98355801601150
C        -3.60937544304362   -2.19766679811357    2.81795464967144
C        -3.54094411833883   -2.01678676936845    4.18993057786112
C        -2.60214518294137   -1.15897070473071    4.73403591581225
C        -0.93031026534848    1.27405244411239    8.17473294251460
C        -2.06924040933408    1.97350787795413    7.72166103551469
C        -2.10496000795806    1.77361840384140    6.36380146729146
C        -0.41629834945337    1.16960920157202    9.56613094417693
C        -3.03514030195462    2.23192749650315    5.30408916503067
C         0.73312676304148   -1.70737815800407    5.46902195201585
C         1.80197245362495   -1.97843929169494    6.51894760019913
C         0.71460096013788   -2.81812920152035    4.41731710867135
C         2.43039980685214    4.34645014939227    0.86584247962064
C         3.56340262801485    4.66354991759835    0.12049289821722
C         3.42852066642064    5.18176157617383   -1.15428979703075
C         2.17148287848255    5.38209966756812   -1.69925588173486
C         1.04229254496471    5.05395460967573   -0.96845542354051
C         1.17058661725900    4.53640341626270    0.30693129208423
C         4.21489776429173    2.97118470593838    2.47307025263045
C         5.36614539120634    3.47145474207109    3.06721581939638
C         6.56844646933426    2.80171758879302    2.90567818335889
C         6.62996254319911    1.63261502375239    2.16635643110547
C         5.48275599790431    1.12865582155786    1.57024424894654
C         4.28423585067301    1.79670173401618    1.72332173970477
C         2.27301551123048    7.32958041532186    1.57506697548046
C         2.79654110229886    8.02608270403947    0.49455042720729
C         1.95418675046748    8.61793334119724   -0.42825172114189
C         0.58234544402894    8.52012225529985   -0.26834789714833
C         0.05738931987251    7.82493607955271    0.80885207130271
C         0.89706516206176    7.23097201554639    1.73279616683246
C         3.46901715787218    7.92415350976578    4.10500980690853
C         2.30437796546659    8.32512237316304    4.74755878133276
C         2.36701657262945    9.27380933694273    5.75107346434478
C         3.58562168750914    9.82616456155666    6.11451938371505
C         4.74694441846632    9.43119093463255    5.47186803380387
C         4.68697247530453    8.48202409896730    4.46729353362491
H         2.07127098212714    5.78752684863872   -2.69554207131361
H         0.35147193532546   -3.74067311033547    4.86510532742733
H         1.71219428725403   -2.99383399568975    4.02330378308069
H        -0.24500578936824   -1.68984046704071    5.96848748872819
H        -2.50062218002691    2.29517412361988    4.35216922720479
H         3.38380987325416    1.42684894392142    1.24558625575604
H         3.37626706043093    4.95825539449294    4.43854685674736
H         2.36589749725007    9.15511699396968   -1.27010674133471
H         0.05581892872984   -2.55263599697670    3.59260206991943
H         5.57709181659211    8.16028276318688    3.94565749284600
H         1.67221259044603   -0.65750023777768    1.69971563771427
H         0.28853186837984    4.27570648943536    0.87802379146000
H        -3.44065576402788    3.21004336100022    5.55303254733742
H        -0.08001840950510    8.98219676738949   -0.98575230780619
H         5.34292616388625    4.38938628101552    3.63405659112148
H        -4.22443256620113   -2.54485448093887    4.83903762314622
H        -3.86540154776233    1.53330567477057    5.18547170562157
H         1.76726353515330    5.47649835921894    3.92636417083387
H         6.56031320660839    1.80547147753004    6.04810212427405
H         4.31152971507597    5.43029399834661   -1.72472160374067
H         2.67718956823448   -2.42460370583705    0.29472416843394
H         0.47083608261982    6.67357045018305    2.55412518320902
H         0.05964204451234    5.20081873537654   -1.39244673596290
H        -2.56276001521436   -1.01706557372029    5.80573596469581
H         5.08042660492353    0.94222962186083    4.28532684089923
H        -1.01269216632716    7.74036695576060    0.92920119350948
H        -0.07658407840704    2.14567391167090    9.91124904026312
H         1.69756227861063   -1.28767106032407    7.34988285504577
H         1.35228282533706    7.90419398757975    4.46024131003838
H        -1.20205576320597    0.82673918962152   10.23750449670856
H         0.41669809012890    0.47235604251914    9.60060976317319
H         3.62728148967319   10.56832865770939    6.89831948199630
H         1.69905666908239   -2.99528082964593    6.89131056356607
H         5.69613037581713    9.86414551202948    5.75217208196459
H         5.52525179390697    0.21762732327909    0.99011287516315
H         7.57079554509910    1.11425726606117    2.04977790001489
H         5.67090126646391    2.23125833890417    8.31286798653191
H        -2.75246743202720    2.54701647377601    8.31498601455247
H         2.79228688773035   -1.86479451627245    6.08381255619645
H         1.79672754002028    0.95958604103805    7.02747867251109
H         4.65005950005256   -1.33919966762549    4.69025371905485
H        -2.79878187939773   -1.64535301966141    0.91321793475825
H         3.28721687562799    1.80956487699937    8.79572525697629
H        -1.12636036409207   -0.09983317886584    1.88730552169726
H        -4.34588669847909   -2.86727010560445    2.39902944269675
H         7.46417294627029    3.19935361233317    3.36056037298361
H         5.64387450334477   -3.09191979525765    3.29556823617734
H         4.67624012421845   -3.63597568862715    1.09489608780646
H         4.54767157295159    4.50742582805162    0.53524001458272
H         3.87065053389970    8.08185959972970    0.38838857559521
H         1.46225821386523    9.58663879550234    6.25176129915234

