99
CSD_code = YUSXEP | q = 0 | S = 0 | Stoichiometry = C38H54F4NiP2 | MND = 4
Ni        0.79942090582987    4.64861751292774    4.93666367664809
P         2.36272284868097    3.21499215260354    4.31587912863649
P        -0.27452041848819    4.15749291141512    3.08380933084850
F         1.90810456487692    6.69133417464220    8.28684008124264
F         2.54580202582841    7.11139565562036    6.26269905817299
F         2.90098737331029    4.47384426198411    6.85471237182754
F         0.85494320525497    4.26890047593188    7.53942171195978
C        -1.66131067468405    6.36418149751633    5.23434222448209
C        -0.36445389269374    6.07104183091869    5.58984088498395
C         0.20460077474375    6.89522764926724    6.60235838415120
C        -0.44543535153183    7.94510189417591    7.18467053729028
C        -1.76384144788176    8.25098006626212    6.79405102164516
C        -2.48975712943610    9.32079243252325    7.35539032583070
C        -3.77370634134661    9.57471225631829    6.96107565029195
C        -4.38725482185046    8.76865396949507    5.98975718207702
C        -3.70773629140746    7.72355542090236    5.42931445807189
C        -2.38041539413280    7.43602355160496    5.81091735117432
C         1.57971623616319    6.44778463981926    6.98765330537235
C         1.62433560739096    4.95724240679785    6.61246606935892
C         3.73063039371402    4.36153333311863    3.78577442303395
C         3.10124936384809    5.65968245440880    3.26785503179308
C         4.16787412923800    6.73296405469095    3.09480115223283
C         5.23509668851771    6.24932418395334    2.11623691429893
C         5.84188105481338    4.93201752443045    2.59084631931483
C         4.76413000449338    3.86313630637079    2.77971067058066
C         3.21717119377081    1.88627624333522    5.30086371783065
C         3.87756616462597    0.75788218997259    4.50956069556403
C         4.62662830043867   -0.16338854914030    5.47237096978031
C         3.67087998382727   -0.75782754299949    6.50246574501351
C         2.95004851053994    0.35053738362457    7.26407484427374
C         2.22399651670691    1.27834281117526    6.29566696939756
C         1.80585268766116    2.31892834773750    2.78687879400848
C         0.84758517965669    3.18023888343314    1.97321173265679
C        -1.11981288133655    5.31195198009233    1.89162230357816
C        -0.32148490780376    6.61644069354444    1.83545735459955
C        -1.08513231978720    7.66962564335603    1.04013357320121
C        -1.37528729264063    7.16194217018333   -0.36988130434068
C        -2.14403347447053    5.84477969097368   -0.31848371543593
C        -1.36745690824768    4.79476483363502    0.47634496337476
C        -1.60390900411094    2.96485783070113    3.61917191449535
C        -1.21415871402855    2.44253837656104    5.00681059463837
C        -2.35548582952591    1.64150213356841    5.61964466056667
C        -2.72851852513640    0.47835980089664    4.70333395391232
C        -3.08917193872382    0.98576497315229    3.30959795838636
C        -1.93563937832513    1.78771221143735    2.70545312495420
H        -2.18654797205281    5.76587418121401    4.50077958056967
H         0.04013398308967    8.53111787891160    7.95172434273201
H        -2.01125921140474    9.93476621379784    8.10487228527344
H        -4.32631897854361   10.39551582205261    7.39454161610218
H        -5.40320830120688    8.98197056197518    5.68935689998326
H        -4.18098415586203    7.10147560646346    4.68155543770698
H         4.24416853628912    4.59441577347104    4.72855847689579
H         2.62410913973373    5.47712604348655    2.30180175837673
H         2.32676879959814    6.01273126712086    3.97566395902089
H         3.71179718375670    7.65423280733502    2.72759180362776
H         4.61987932208887    6.94948258324622    4.06376214706133
H         6.01965335897278    7.00161383866715    2.01674218856474
H         4.78531026604517    6.10619666509642    1.12975879906402
H         6.35356504436261    5.09428151526127    3.54176422906934
H         6.58232124296618    4.58146036137090    1.86781972165519
H         5.23698987669608    2.94399093881892    3.12782054367318
H         4.28779028332788    3.66117370656690    1.81669528735862
H         3.98740486499884    2.41801409102906    5.87290155284400
H         4.57489162529933    1.14680208863161    3.76690642799249
H         3.11900112502271    0.17347485916992    3.98414164009106
H         5.40433620539399    0.40629100651652    5.98566056349368
H         5.11363151181937   -0.96362392904887    4.91003127669925
H         4.22368555808423   -1.39159713645457    7.19862056961886
H         2.93572403640110   -1.38625637345272    5.99283817883357
H         3.67441615133713    0.93026049260023    7.83930734906005
H         2.23556394753942   -0.08274867953597    7.96659578792807
H         1.46560057612753    0.70490197802508    5.75417235221559
H         1.71766174058580    2.06835081724293    6.85213799294211
H         2.66195772306172    2.00065463021469    2.18800415337085
H         1.28783079214179    1.42105360421005    3.13569987357153
H         0.26332928092362    2.57491420448572    1.27606651158785
H         1.41195673145623    3.91204885373629    1.38959133128145
H        -2.09419799572109    5.53477383731767    2.34393666481628
H        -0.13097219583635    6.97290662457215    2.85212229563017
H         0.64333034081947    6.43531521579462    1.35526708996458
H        -0.50351821150021    8.59184524146987    0.99216191546097
H        -2.02492220578467    7.89499680518570    1.54904099880401
H        -0.43249061413274    7.00921167552811   -0.90079070807370
H        -1.95207281146696    7.90532691254379   -0.92323638771291
H        -3.11555208923181    6.01070716540610    0.15273563914699
H        -2.32299971964939    5.47842759708626   -1.33181459556669
H        -0.41859855621858    4.60298665065422   -0.02776514727866
H        -1.93644834528566    3.86359809848686    0.49729620349608
H        -2.50795684870193    3.57919229489813    3.73025045757031
H        -0.33642447666623    1.79740777898932    4.91314672735259
H        -0.94820617898393    3.29001779914374    5.66622179307399
H        -3.22286779264062    2.29063239008470    5.75849257211364
H        -2.05985259390128    1.26605171801799    6.60056249900948
H        -1.88326318255236   -0.21059283255787    4.62948298346362
H        -3.57067220187532   -0.07401822478721    5.12412969140444
H        -3.33016120371282    0.14306150176835    2.65754667614512
H        -3.97554143307396    1.62108493056575    3.37423274810975
H        -2.21904967132940    2.13223805918136    1.70886030700431
H        -1.06732307705681    1.13299976574123    2.60474882187907

