84
CSD_code = YUSYOC | q = 0 | S = 0 | Stoichiometry = C33H44Cl2N2P2Ru | MND = 5
Ru        8.48989254661861    8.89637193676517   11.30989334004109
Cl       10.78757782999713    8.56739239611133   11.30434005425102
Cl        8.61126844399091    8.79619170514703   13.65310473026830
P         6.33735879902631    8.15554124163945   10.98231180248512
P         8.40408873540538   11.15769756962305   11.31185217279897
C         8.15367598317990    8.47617069304179    9.29855375452958
N         6.83772793391353    8.07910597201713    9.31188881077645
C         6.45811144533161    7.64381525752296    8.06685342638828
H         5.47386494273356    7.29816633434819    7.82319656132277
C         7.54442150688671    7.77607281804478    7.27400417601496
H         7.64343968450763    7.54393598062135    6.23544455128370
N         8.57555610015220    8.28420563232638    8.03391621698781
C         9.95196489593090    8.44707654483615    7.55157825865559
C        10.76443969309294    7.26222944239076    8.08029715291113
H        10.30620221300252    6.31867726912961    7.78628323083160
H        10.81990521495159    7.31669747988455    9.16625816565486
H        11.77490586966660    7.29589658077036    7.68397283798686
C         9.98436263249082    8.47191586333538    6.02234231469004
H         9.29546677997590    9.21755838813277    5.62994051356850
H         9.75017413832380    7.49920220473049    5.59495771600501
H        10.98791855384653    8.73942487619385    5.70268789330739
C        10.51969274268835    9.75811101702980    8.08593151407262
H         9.98935160618581   10.60962334684129    7.66663453941458
H        11.57159958782745    9.83257930520383    7.82671487141764
H        10.43077723077487    9.77545766987191    9.16918595948909
C         4.56742772613708    8.81081507417859   10.87753191030569
C         3.51299643788148    7.90068207380837   10.25832855459827
H         3.24353335686491    7.09230591317678   10.93229694733278
H         3.84195683765088    7.47782033654727    9.31331683514815
H         2.61260561738341    8.48491780289292   10.06906176252205
C         4.70239137719582   10.09364956382609   10.05390865643754
H         4.85417218735908    9.87113197040419    8.99880151705707
H         5.54781130054624   10.68327344603119   10.41668748915709
H         3.80310142332218   10.69999915093495   10.14809113243042
C         4.17806441669700    9.17719435199762   12.30931696104782
H         3.97387238692759    8.29156594974827   12.90547288390384
H         3.28439153633412    9.79976040421888   12.30958464555009
H         4.98489715620891    9.73365962777152   12.78371448987237
C         6.41697317772093    6.32012658501509   11.44552635802942
C         6.05049554275287    6.23986383724173   12.92709407417854
H         4.98343548714239    6.38722791710206   13.07955159191046
H         6.59715408327474    7.00157807829989   13.48788428765693
H         6.31625495423908    5.26301267536958   13.32943980266323
C         7.89920174134614    5.95176371434121   11.27874901183982
H         8.18529418379696    5.89954802121626   10.22478485093927
H         8.09383042117772    4.97719579749583   11.72650854439807
H         8.55640506141993    6.67591586299376   11.79804051245110
C         5.58224731905645    5.35592938351960   10.60589375610482
H         4.52198253301600    5.44077073818837   10.82081741484639
H         5.88495249637157    4.33468070554918   10.83739856121807
H         5.74221493873524    5.51611287907293    9.54083267053718
C         7.02425216040163   12.00399900134453   12.16951875418238
C         6.59078470041045   11.47972391530606   13.38625750206526
H         7.05656685363881   10.57856059573854   13.76708027588749
C         5.58126170783950   12.10493514633562   14.09647569166135
H         5.26091377773907   11.69705490241790   15.04400328975509
C         4.97940595651434   13.24548481932670   13.59108170796295
H         4.18756696748391   13.73118583428567   14.14226639981433
C         5.39458441601866   13.76014713304422   12.37445186959166
H         4.92509996293260   14.64712385078134   11.97415393040968
C         6.41425855601906   13.14886505471590   11.66601132213617
H         6.73162834127303   13.56488252966792   10.72117745151246
C         9.85702777046435   11.77404093058966   12.22897540590858
C         9.78881518237056   12.17083842053155   13.55919228357668
H         8.83790663232144   12.20143225906338   14.07019711918572
C        10.94535486245313   12.51572656355675   14.23747019851438
H        10.88586237047606   12.81534411363146   15.27383492384722
C        12.17240015754460   12.46271350899267   13.59978551372383
H        13.07344925122381   12.72009919003819   14.13743773011845
C        12.24485272474387   12.06758944306339   12.27313946490260
H        13.20146284116177   12.01386932087345   11.77434159759028
C        11.09577455628357   11.72115762021452   11.59020876379519
H        11.15178303892811   11.39546066799166   10.56077971022613
C         8.48647018367183   12.12577619782367    9.76053648514154
C         9.17742059844370   13.33040919294146    9.67138789333887
H         9.71288373983244   13.70850940517066   10.53030032357901
C         9.17605880537737   14.04628070334429    8.48718618811765
H         9.72048848366466   14.97709778536576    8.42401955737377
C         8.47729817548884   13.57830463674484    7.38630338570258
H         8.47982892272273   14.14057890519297    6.46413233312966
C         7.77373916286934   12.38815670416363    7.47323565448481
H         7.22185520315901   12.02155844508927    6.61917836363998
C         7.78192140190191   11.66705912095386    8.65336050608204
H         7.24921372356723   10.73051469519175    8.72893861575021

