108
CSD_code = YUTGUR | q = 0 | S = 0 | Stoichiometry = C49H52N6Ti | MND = 5
Ti        2.64568796136073    4.98327866215704    6.78523977324310
N         4.63338106775238    4.50162525946094    6.86173617482976
N         4.00288233688396    6.47214539723538    6.12917705923419
N         2.91393880968276    8.35113225088820    5.56455434213633
H         2.29765961338564    7.91892093393373    6.25022724910203
N         1.83391414560013    5.16014103768763    5.10484194372356
N         1.97495791525858    6.21263288739765    8.04815548155819
N         1.66627360116724    3.49289421665710    7.35267998963180
C         5.47338357920702    3.31946494030556    6.97766283827356
C         4.93360084415898    2.47998598849927    8.13591825257636
C         4.65945848435192    3.12731789011081    9.33644150399259
H         4.75279335455771    4.20586186317080    9.38636521016115
C         4.29293928173084    2.40480669166041   10.45704727699977
H         4.09190250533284    2.91699294885931   11.38728536447377
C         4.18917346141214    1.02511570134081   10.39215020234639
H         3.90516055571731    0.45905216147437   11.26724343767122
C         4.45600628189722    0.37580678402021    9.20003028192118
H         4.37789336904493   -0.70040494020156    9.14133905232770
C         4.83519310466046    1.09651398075096    8.07983871662845
H         5.05533625019864    0.57202144137557    7.16092730787455
C         5.39941667886124    2.57807778998604    5.64835987931185
C         4.13463945520175    2.15027036661000    5.24616885173027
H         3.29550971421409    2.31877599869215    5.91250656672917
C         3.95511377595542    1.52480582129581    4.02608520017036
H         2.96987208129656    1.18909905342753    3.73528941729019
C         5.03414882072875    1.33147348008825    3.17803557877167
H         4.89772632045092    0.84422645299142    2.22368312868551
C         6.28792423054781    1.77251069604816    3.56046239850646
H         7.13365709923049    1.63547406595319    2.90200334156911
C         6.47221079535979    2.39224190574054    4.78630584473589
H         7.46268331605830    2.72503117097874    5.06101097635686
C         6.89653884164934    3.61373692800629    7.45160025194444
C         7.81997300964696    2.57392870003376    7.52132944581823
H         7.53196617441949    1.58170049804896    7.20547105543090
C         9.09733343047159    2.79390726764920    8.00131235321204
H         9.80309417060443    1.97668950298881    8.03912043154576
C         9.46955028211656    4.05376386157820    8.43959834980743
H        10.46837108489498    4.22701019582871    8.81230443835130
C         8.54657674482631    5.08329533613851    8.41093736381721
H         8.81983700963809    6.06572188217312    8.76806302488512
C         7.26743836471227    4.86357352577776    7.92927219200930
H         6.55554955260850    5.67658553327898    7.92425542102231
C         4.95892265022042    5.51635844595144    6.04637722781941
C         6.07152537642561    5.72902002116527    5.20102631525562
H         6.86017052772058    4.99999832635226    5.12127822105392
C         6.12600275840211    6.90610489174700    4.48388226298756
H         6.97322475305004    7.08987571767779    3.83729748716931
C         5.11758945695696    7.85941554910541    4.55867185884509
H         5.16786605118365    8.76926504934206    3.98501029810289
C         4.04052435574081    7.58723879868886    5.40474384196450
C         2.82629396053350    9.80107283655749    5.44479273351263
C         1.70988169969046   10.26196225461482    6.37882910038414
C         1.85577604949833   11.33778758730300    7.24335129028411
H         2.79005038943157   11.87828308591509    7.28380555775452
C         0.80895023170949   11.72615216226944    8.06316609591215
H         0.93986197401521   12.56284484687382    8.73376456911915
C        -0.39680116631977   11.04948161759266    8.02580939812463
H        -1.21016679811084   11.35174357211762    8.66866361736562
C        -0.55607802726600    9.98724201459613    7.15150472521931
H        -1.49802610210763    9.46040630206547    7.10483462589376
C         0.48657425025734    9.60053856500431    6.33018007064979
H         0.34727810841778    8.78191449791445    5.63956708815792
C         2.39936776467532   10.20192793672882    4.03598346056734
C         2.39836026800542    9.28646312894965    2.99391608209212
H         2.71342397778277    8.27056864024953    3.17564775218014
C         1.99416593564897    9.66661908216238    1.72539434788414
H         2.00067186198707    8.94253378101291    0.92358186248049
C         1.58351802703314   10.96517113388136    1.48317130959007
H         1.26932368420269   11.26115017924111    0.49316652583099
C         1.57329967563041   11.88307090919496    2.52030272931247
H         1.24908149043076   12.89804825501070    2.34224001926526
C         1.97455797221596   11.50355490661929    3.78778144725528
H         1.95684459816986   12.22265276059284    4.59429045746220
C         4.16160787746236   10.41513122969542    5.84897748493691
C         4.71569017555127   10.01548224342154    7.06251738171970
H         4.18221404444724    9.31031395349421    7.68373799868183
C         5.93658486603473   10.50966987156482    7.47833270047484
H         6.35224759999698   10.18775707567648    8.42203762452325
C         6.62563545460814   11.41462050142114    6.68779987500528
H         7.58112136052502   11.80130017052285    7.01008717631632
C         6.08260067439597   11.81691424284257    5.48145487307312
H         6.61401059056912   12.51939300120473    4.85598806497973
C         4.85938988559942   11.31962636095479    5.06212062177132
H         4.45726790817646   11.63624583179454    4.11138668190993
C         2.56407503134508    4.90507698614190    3.89260538613610
H         3.52380459217861    4.42365908163654    4.10491393521802
H         2.76664881828583    5.83895956569323    3.33130826867650
H         1.99547700772989    4.24364642660997    3.21173293880560
C         0.57370857695346    5.78816510445366    4.81040059299874
H         0.03209007113969    5.98826799313671    5.73671037471019
H        -0.05663295230173    5.14288147352059    4.16958896287315
H         0.71274857856012    6.73956594702565    4.26265828267557
C         2.86992704588783    6.86004770622088    8.97421904631098
H         2.82928056200485    6.39621504185190    9.98098363926117
H         2.60159550139587    7.92624459504011    9.11078237672589
H         3.90053947538871    6.80467120628395    8.60833323293241
C         0.61336669728584    6.32945667337428    8.50795098413089
H         0.25815213924064    7.37594594138664    8.44854623421537
H         0.50908888427429    6.01685743319987    9.56385894218435
H        -0.04245355045665    5.70132676293939    7.89973445856047
C         1.47738738306505    3.16249565587938    8.74415521502988
H         2.06024084419671    3.83595712501066    9.37597017548335
H         1.79163513119082    2.12468725230572    8.95812719088127
H         0.41203389051337    3.23967570759992    9.03220739908714
C         0.80587455680586    2.65566024195295    6.55027557011791
H        -0.25758622200849    2.80288505887799    6.81937078981620
H         1.02622129683453    1.58303236721396    6.70942368588803
H         0.92760297108723    2.88639118366704    5.49003248382708

