61
CSD_code = YUTHIE | q = 0 | S = 0 | Stoichiometry = C26H22BF10PZr | MND = 13
Zr        6.73070227617907   13.16663973509171    2.38633743765164
P         3.91992882709950   12.95842070220250    2.34269290675831
F         8.30207278483901   12.59586068191636   -2.59932071686124
F        10.32189112552204   14.14863848532717   -3.50954918484116
F        11.96100339314277   15.43932541093837   -1.75488955095952
F        11.51939366870831   15.18472632860417    0.94418706034567
F         9.48862875092762   13.60543038758376    1.85176473930320
F         9.23587843704903   10.30183877232911   -1.73776651427363
F         8.41645381855285    7.81795565792660   -2.36155152146711
F         6.27947140735063    6.69811607550797   -1.09011431070577
F         4.97968859431961    8.12814906251993    0.87378362373756
F         5.80702766724914   10.65815527109488    1.47666282494875
B         7.71893154906366   12.11113634990478    0.30312914303592
C         6.32577464052621   12.98061315073902    0.21624993513790
C         8.91270544036249   12.96098912572584   -0.35359369163862
C         9.12592267415807   13.16904631321268   -1.71472518954946
C        10.14357952092950   13.98547385593752   -2.19516676058229
C        10.97854787749743   14.65419723431564   -1.30267487392250
C        10.76217502439143   14.51807421336764    0.06514903577468
C         9.73911403639922   13.68771980337208    0.49482529517965
C         7.47305908603324   10.59705244697813   -0.18856952538095
C         8.14357996557791    9.82193992693593   -1.12983608621484
C         7.74940504997288    8.52277774534278   -1.44299878259993
C         6.66626178105225    7.94217781095514   -0.79065694852840
C         6.00398846600609    8.66658895323339    0.19724709357488
C         6.42895637137133    9.95423827262875    0.46619893751789
C         3.10688542559729   11.37036563580097    1.85162100079889
C         2.93120703824708   13.25157871019506    3.88170358793687
C         2.98369581352944   14.03736621882027    1.17061895274090
C         8.32757792464904   11.96798491899420    4.12945855430183
C         7.37343289043381   11.00519867509474    3.75094614480424
C         6.11037878284009   11.44702910962720    4.18421562756230
C         6.28723548706593   12.67919704792341    4.85577098606694
C         7.66195004303143   12.98572060511611    4.83304179720129
C         7.27265474789931   15.47521576016462    1.67152997495727
C         7.63865934951014   15.40595299344641    3.04031672758390
C         6.46091219172733   15.51826570578249    3.80172080537182
C         5.37553486927519   15.64224138463881    2.92364847956410
C         5.87209928452966   15.62349897829229    1.61008176716867
H         8.00704611585136   11.96004281964116    1.51673858622492
H         6.42021535254201   13.86501820106721   -0.42261479192531
H         5.48433247154463   12.39610525265128   -0.17389615353182
H         2.02647819815936   11.46162098414739    1.95879934316912
H         3.45493346641786   10.54586019400228    2.46860338861649
H         3.34134794808964   11.14666415418045    0.81322693279908
H         1.86769654430410   13.28341545200967    3.64794279727620
H         3.11532675348650   12.44201992981978    4.58558224858503
H         3.22134095110461   14.18953909474431    4.34891328921483
H         3.04763839795915   15.07895461737843    1.47002821284442
H         3.41201385731493   13.93354816429855    0.17547395221716
H         1.93662818855073   13.73679860914978    1.14379159799723
H         9.40007176352058   11.87062214483181    4.02223290045020
H         7.59208237088135   10.04570422088712    3.29938920508877
H         5.20016076780715   10.86109607020065    4.16056261752724
H         5.53194404634934   13.19480271204936    5.43594433648274
H         8.14526952206157   13.78556930495179    5.37656479404858
H         7.94971895540700   15.60542863308506    0.83530391560275
H         8.64950908823746   15.46015193567319    3.42526247708617
H         6.41000843154979   15.62082253410280    4.87615945219007
H         4.36457301901331   15.88267995535069    3.21660438515893
H         5.30519770716402   15.82373749823492    0.71299773128809

