33
CSD_code = YUTNIM | q = 0 | S = 0 | Stoichiometry = C14H14Cl2HgN2 | MND = 4
Hg        3.48494913568582   19.67930403535922    4.29968044995709
Cl        5.13227135913350   19.56887780616553    2.72990777990802
Cl        2.69969450865688   19.23193736129388    6.40632323445918
N         2.47815150773171   21.99586472158709    4.40302125336635
C         3.02782074007796   23.04439321275309    4.98948205618167
H         4.10006182485222   23.00225731023253    5.13257541370081
C         2.29619307550876   24.14991757614615    5.40493630984391
H         2.79119763338691   24.98006179735599    5.88282019277720
C         0.92685088337838   24.15335374823781    5.19732496507751
H         0.32152917619613   24.99038379712842    5.51195303868333
C         0.34716034800326   23.05895522923483    4.57779039269246
H        -0.71640535081657   23.02251568956957    4.39690800219020
C         1.15674577221231   21.99149381280868    4.19285620498842
C         0.57410306122050   20.81977728600009    3.54481187523375
H        -0.51331764485778   20.83076278406880    3.41106446761453
N         1.28997272681703   19.85316179547096    3.15752780626689
C         0.70979859674604   18.68161336336062    2.55109621973447
H        -0.39087099193146   18.75308479857700    2.53914230446497
C         1.22983809431088   18.56666803127649    1.11755805519948
H         0.75522634974400   19.31974532062037    0.49266480012398
H         1.00507834670743   17.58084161787188    0.71965293127765
H         2.30364885861480   18.73389911560155    1.09229259431630
C         1.12649420446761   17.53160725858936    3.44994572824958
C         2.37552309248766   16.92278683690109    3.32578546005054
H         3.03009476167537   17.16803145625040    2.49956528764960
C         2.75711119158042   15.93446773028554    4.22195831510009
H         3.72246780193368   15.46217759066753    4.11324198427116
C         1.90778721873989   15.55286290724223    5.24657725722411
H         2.21438258653971   14.79271651684352    5.94918194613050
C         0.66619475175175   16.15118263289357    5.36904231733190
H        -0.00094070198486   15.85952657042971    6.16622224994839
C         0.28096368933092   17.13817437162576    4.47956972470754
H        -0.68447660788274   17.61209591755773    4.59091938126916

