43
CSD_code = YUTNUY | q = 0 | S = 0 | Stoichiometry = C16H22Cl2HgN2 | MND = 4
Hg        3.59192871703369    2.62154376841128    4.14095710979814
Cl        5.35899203203509    3.52644061550126    3.00324744988312
Cl        1.54160129613018    2.87002535625350    5.10968848269034
N         4.90143406509149    1.50149783903472    5.93975444602593
C         5.41687715366734    2.11446745104013    6.99050431774593
H         5.15847834196107    3.15914598455061    7.10767524800780
C         6.24100208088463    1.47731820829033    7.90938021936410
H         6.63760687066251    2.02151244958848    8.75122068074133
C         6.53612100142223    0.13806239707646    7.71554682415595
H         7.17470683531613   -0.39342891392707    8.40539020650120
C         5.99407182030607   -0.50821185828089    6.61765299445850
H         6.19931555026082   -1.55164652026023    6.43228564076684
C         5.17667330306084    0.20780978036520    5.74351476786219
C         4.59651026370152   -0.45566135412470    4.57981224683173
H         4.82440877686367   -1.52380050953519    4.48314927970893
N         3.87750662791502    0.14877980622401    3.73332966931539
C         3.34830566026367   -0.54970016941154    2.59406293870080
H         3.60333247318300   -1.61729183361120    2.68466939142990
C         4.06162859962876    0.01854703463529    1.33173095295598
H         4.54899678211456    0.95678448026720    1.63337171713175
C         3.05799798404415    0.39705218477451    0.24503862456750
H         3.57871213305611    0.71537795549052   -0.65864283261144
C         2.05326915068618    1.37030085733282    0.88128742078226
H         2.43014878339687    1.98677813039073    1.70945121379810
H         1.54674319927141    2.01618698748633    0.17082871949813
C         1.25114245962416    0.12654308765279    1.27786996358651
H         0.16409130484649    0.20043356703551    1.31788316896560
C         1.80558167206453   -0.39078103442002    2.59813767607631
H         1.34908670612406   -1.34845969304570    2.85358363947958
H         1.53304504971424    0.32189387303077    3.38343381309455
C         1.88396292070271   -0.60040440131347    0.06932006190625
C         5.16893964184440   -0.91693838427951    0.85282323245233
H         5.70596191310912   -0.45343248133776    0.02907550349895
H         4.77451207357781   -1.86913284003698    0.51135241128566
H         5.88079497355496   -1.09929002899559    1.65607289094344
C         1.12121556398051   -0.32859476302095   -1.22829191392580
H         1.69646561215067   -0.68990381011571   -2.07864580390905
H         0.92488155150072    0.72754373474686   -1.37863116189040
H         0.16703774350448   -0.85180923449971   -1.21552036901731
C         2.10165593458636   -2.10587371444798    0.14835175177936
H         2.68929323990440   -2.43982783905582   -0.70486279282169
H         1.13564498502665   -2.60705956393196    0.10673757509333
H         2.60011715222858   -2.42209660152152    1.05580262328943

