98
CSD_code = YUTRIQ | q = 0 | S = 0 | Stoichiometry = C37H54ClMnN2O3 | MND = 6
Mn        4.38027996462294   14.60103822343343   11.72213526444682
Cl        3.95832007277345   16.29599741469341   12.97395206255872
O         5.97508210243168   14.17433676183001   12.50897491839796
O         2.73361178837813   14.40884123988444   11.09874333793214
O         3.60910226094857   13.31650686539938   13.53983508739799
H         4.22769373094150   13.63218572761149   14.21426214818739
N         4.73985421625355   12.82012274217462   10.37624386449418
N         5.28657391222942   15.50464438566622   10.27258564075205
C         7.12688253957097   13.84809670253503   11.95484095290085
C         8.36028982976818   14.46894347634769   12.25166396234335
C         9.46897546887200   14.09665734989239   11.50523653494957
H        10.39810944389748   14.59895683311949   11.70111789983587
C         9.44623038199261   13.11447376246662   10.52339511071313
C         8.25373724309567   12.42641386848407   10.34027905464743
H         8.19584323846991   11.60159204366681    9.64344142025608
C         7.12010503950680   12.77225800915524   11.04406169663461
C         5.83797744713892   11.99962644207152   10.90538500925253
H         6.00160842732984   11.12942582634034   10.24859340641771
H         5.52852466615918   11.63672520631298   11.89338632502506
C         8.46209773827464   15.48641274115975   13.38156592033533
C         7.63982579380680   16.73245138352258   13.03880227420471
H         7.97928947443004   17.16409814548231   12.09891806615332
H         7.74361863241096   17.47858001529183   13.82369886847698
H         6.58644068064882   16.48037405157000   12.95256387314532
C         7.90881973934299   14.84823021991427   14.66330961575182
H         6.86601742822254   14.57761881829477   14.52478588862900
H         7.97380676951698   15.55055488868586   15.49152309635195
H         8.47354395959568   13.95255637977305   14.91680923321658
C         9.90387819310634   15.92556506248928   13.65829880343917
H        10.53722508777443   15.07348416120924   13.89537004859232
H         9.91129511748803   16.59835498719502   14.51360378451623
H        10.32436263283643   16.46197554592832   12.81059967459436
C        10.65764967089464   12.75597995317424    9.67604620598929
C        11.87700685806723   13.62902750594048    9.98308790807153
H        12.70003895532319   13.34545725110981    9.32971598656918
H        12.20504971028061   13.49568180179472   11.01105892847051
H        11.65719740498566   14.68018673398323    9.81179071844264
C        11.04210397738187   11.29191536682203    9.93139039045451
H        10.23299427458427   10.61772823383983    9.66448651315433
H        11.27380970906781   11.14435225320889   10.98394752524674
H        11.91744094146688   11.02362335374136    9.34318115965313
C        10.29775272376680   12.94804667505749    8.19541475741965
H         9.47821218548026   12.29816785101070    7.90086378466268
H        11.15534240697622   12.71991148831097    7.56559617327125
H         9.99901352629561   13.97885514528613    8.01541436853807
C         2.06164920862735   13.97732173492102   10.06256456683363
C         0.99582347453045   14.68633581847862    9.45820182003139
C         0.33393307901725   14.08252401179272    8.40571086295305
H        -0.47769743567936   14.61521282945765    7.94101451388846
C         0.65615183230413   12.82236313297184    7.90200281840542
C         1.70947838927059   12.14806982373056    8.49695911978846
H         2.01336183883223   11.17147077688380    8.15306310144430
C         2.40312821530969   12.70593507660170    9.55654294285940
C         3.54104972879905   11.97592725674481   10.21966492827203
H         3.24206608009852   11.65634448858322   11.22582737414566
H         3.79156461229550   11.07870437420718    9.63141308973328
C         0.63724072875857   16.07833717965299    9.96079871348972
C         1.84125288926079   17.00426667553922    9.73548085253217
H         2.70347595449259   16.65732794955379   10.30298541865488
H         1.60438705706855   18.01341373166717   10.06484017488324
H         2.10786926031769   17.03340986869779    8.67989216166957
C         0.31056585630434   16.01855086466517   11.45856631031156
H        -0.49046544140237   15.30503894556998   11.64500288860826
H        -0.00394525719110   16.99788212463909   11.81218620659443
H         1.18729280720564   15.72165134106072   12.02749727089138
C        -0.57143091852539   16.67669091872533    9.23400929862584
H        -0.37387232613927   16.79886703192748    8.17121886602939
H        -0.78517738722391   17.65987538052099    9.64821946588849
H        -1.45562427427779   16.05703600853597    9.36713431773694
C        -0.14072968839832   12.25892915067555    6.73511840756955
C        -1.61799605264192   12.14940548830424    7.13745058147339
H        -1.72283853865670   11.50233122851815    8.00573566170234
H        -2.20069550599373   11.72924075398222    6.32007989954051
H        -2.03313471023082   13.12180174312007    7.38627044074472
C        -0.00104455449492   13.19705161362637    5.52770118391549
H        -0.38616346784698   14.18797186750942    5.75058866454050
H        -0.55220677203138   12.80066997857585    4.67730468463243
H         1.04562138719379   13.29437555052835    5.24634426101030
C         0.34026890815431   10.86757431474861    6.31360971111085
H         1.37672915242988   10.89469528109524    5.98488984081205
H        -0.26552083500381   10.50986264121075    5.48333567067844
H         0.24311069243752   10.15689404104306    7.13103961950481
C         5.13372208059338   13.39350132703892    9.08470086675862
H         4.22262108401131   13.53054752044100    8.48482487281156
H         5.80479090910011   12.71854405918435    8.53737267474108
C         5.76372020825473   14.74304133016913    9.25838203638306
C         6.72705769837707   15.19513198911430    8.37593890621244
H         7.09072738885853   14.53008085631158    7.60803623502452
C         7.21075332311089   16.49042130672395    8.47979428097667
H         7.97198503483586   16.85527882949506    7.80904239519927
C         6.65958131790174   17.30199821726315    9.46072428229485
H         6.96081979056009   18.33167329082206    9.56812448588109
C         5.71720061452996   16.77956410339930   10.32068521186495
H         5.28057167580510   17.40144390910115   11.09080266343059
C         2.29355180964413   13.49682353126226   14.04151181201273
H         1.60663554469271   13.20380741871294   13.24912331925371
H         2.10938710646388   14.54072419812288   14.30672683456502
H         2.13576105989975   12.85892421987548   14.91706614657280

