67
CSD_code = YUTVEP | q = 0 | S = 0 | Stoichiometry = C21H34BClHgN6S3 | MND = 4
Hg        9.57514684371090   12.17238338966882   -3.95500771208363
S         9.58592254451133   13.52745310011710   -1.65699138615962
S         7.31755430999161   10.84875931419400   -3.44148345163651
S         8.40464125713680   14.10468834481927   -5.37129219640959
Cl       11.43887281690808   11.09345904188694   -4.72870530896375
B         6.37457193728819   14.01405263122265   -2.65102291063957
H         5.40032129014029   14.57538826759590   -2.25394987463227
N         7.54043850810652   15.02556814592123   -2.62874728806266
C         8.84302067409791   14.91642750912476   -2.31866455993097
C         7.33659400154195   16.29954639473699   -3.08006857224323
H         6.37080367190592   16.62592290407187   -3.40363186804624
N         9.45909856383545   16.09876142214559   -2.55411150290975
C         8.51190963162160   16.96235215144795   -3.03817579363612
H         8.72545700815610   17.96905529467278   -3.32119775174735
C        10.89168090214109   16.39488236156669   -2.40618346321924
C        11.28723137414468   16.23394842786559   -0.93645021939123
H        11.10035386676686   15.22017869453572   -0.59577592011923
H        10.71838587071417   16.92204894102293   -0.31400172030101
H        12.34550997553733   16.44851126928556   -0.81884287677406
C        11.16819453932454   17.83643426860960   -2.83726357298151
H        10.92776997231229   17.98580211986316   -3.88713831468563
H        12.22760743845873   18.03896687368950   -2.70392582400593
H        10.61362261779314   18.54728192692858   -2.22854268399292
C        11.69234946417400   15.45334046788011   -3.31064786407936
H        11.28619358775195   15.46573209808007   -4.32159052099672
H        11.66956313535227   14.43058668252639   -2.93997999031555
H        12.73038762799408   15.77101663248814   -3.34843048123173
C         7.08583600560405   11.57204672922987   -1.91120496329999
N         6.64959453918399   12.82585344346689   -1.70502168476207
N         7.25106527452100   10.95442812657081   -0.71784364701160
C         6.55016061537525   13.00329794320661   -0.35335447765310
H         6.23259827895588   13.93639480335978    0.06193576007938
C         6.92018719419559   11.85783647676074    0.25768607860538
H         6.97119096979728   11.63969756315952    1.30121437027088
C         7.77003837836389    9.59808889490218   -0.48786245009163
C         9.18001207498382    9.49594026222434   -1.07693725811990
H         9.79529281229011   10.32483855947414   -0.72832903961892
H         9.15913396414424    9.51265654521689   -2.16473993344493
H         9.64348025258924    8.56370133659936   -0.76702369275039
C         6.81890038037879    8.58314570483904   -1.12631012273833
H         6.73806357311696    8.75069001876999   -2.19592313391367
H         5.82759213111138    8.66363762463321   -0.68433231326031
H         7.19535372076286    7.57770959033366   -0.96138203810124
C         7.84949024357610    9.32351594676602    1.01502053263892
H         8.54074940109161   10.00624621848936    1.50330316548345
H         8.21807801650677    8.31166869143465    1.16168107424897
H         6.87076520686880    9.39325762650081    1.48474266137622
N         6.08365958858142   13.52815469026839   -4.08676814449970
C         6.83261661401746   13.45801667191538   -5.19984509513869
N         6.12106602727875   12.85304823784082   -6.17991500148019
C         4.88056136741414   12.94463795026265   -4.37025686911152
H         4.11313022832910   12.86695070056825   -3.62932549435985
C         4.89884558500873   12.52654671056596   -5.65371157139825
H         4.13682687173844   12.02469672053069   -6.20744594463295
C         6.58569001766221   12.52136626249675   -7.53493137956925
C         5.47996601219396   11.78593584445002   -8.29443062460125
H         5.23283303147502   10.84275344946729   -7.81306417005377
H         5.83735694954044   11.56692622329047   -9.29719189305626
H         4.58497538503070   12.39755856882129   -8.38567523012864
C         7.80385017909727   11.59866375361413   -7.43369674829237
H         7.59116402851989   10.76522081565888   -6.76483677737141
H         8.67617044965155   12.13045053059200   -7.05917951594929
H         8.05072189358598   11.20332080326654   -8.41486727757795
C         6.92086656586220   13.81550180827290   -8.28002142560645
H         7.70240210483101   14.36536873402094   -7.76473375897904
H         6.03886182768240   14.44884611073557   -8.35391460417354
H         7.26744880758087   13.57933463142730   -9.28198373276059

