74
CSD_code = YUTVUE | q = 0 | S = 0 | Stoichiometry = C27H42IrP3Si | MND = 4
Ir       12.68312526121833    2.84541607252185    1.71934287011435
Si       12.81343130369639    1.79681320728098   -0.37514839231707
P        11.13476193022220    4.09888205240928    3.00011881649633
P        12.42456695181276    0.92049139671312    2.94033885524478
P        14.15760766761521    4.47090991419569    1.05555843686105
C        11.65254912870512    2.77207583862899   -1.57831704106618
C        11.11984075642035    3.99939410341061   -1.20857682512844
C        10.25476316221977    4.69514977758719   -2.03394761495183
C         9.90326144380866    4.16513460067988   -3.26383539679009
C        10.41606491074589    2.93761590004907   -3.64907925471297
C        11.27570867601202    2.25032017671972   -2.81041372054643
C        11.93321609135151    0.09515050275801   -0.54656340311615
C        10.59708163900168    0.00775934184648   -0.17197058825289
C         9.90072985240767   -1.18416372359956   -0.24773693908759
C        10.53738150832226   -2.32770329451469   -0.70261721862146
C        11.86548260599170   -2.26032016521566   -1.08674851751287
C        12.55084918847910   -1.05942367471809   -1.00831124365952
C        14.42777765375864    1.56414885240987   -1.39501087591618
C        14.65086900189809    2.19531535200171   -2.61262037739381
C        15.84797687921122    2.05012886460667   -3.29271659014675
C        16.85626648591722    1.26299383786569   -2.76389716035181
C        16.65711339520953    0.62738664411146   -1.54929834125843
C        15.45914814205229    0.78657366100625   -0.87684319637685
C        10.68023575193546    4.02082831933089    4.79691929108883
C         9.51225784841788    3.58148964838554    2.28935015953010
C        10.93058739061758    5.92441796291160    2.79016938686589
C        13.38969912638884   -0.56951878476298    2.45914001629208
C        13.15468878252267    1.16260855433690    4.62081660376892
C        10.85193345315079    0.07356956544726    3.41407130244218
C        14.23397013423212    5.29323652804992   -0.58992344950707
C        15.87206757610723    3.79559569273489    1.09919345305276
C        14.42597241196197    5.95950456036570    2.12315665601831
H        11.39655928176967    4.41119479086808   -0.24328119149058
H         9.85055099589690    5.65034537182173   -1.72296056262190
H         9.22974721772547    4.70343808206855   -3.91643871906151
H        10.14001459233826    2.51597253152412   -4.60622546676054
H        11.66263037984603    1.28760742888927   -3.11448022739389
H        10.09697877846360    0.90282858377762    0.17378026163997
H         8.85921933178964   -1.22770214218860    0.04431440038458
H         9.99911055522255   -3.26349524783341   -0.76273203132032
H        12.36683258238904   -3.14712378857750   -1.45102339530194
H        13.58576392337114   -1.01670618626008   -1.31704636818357
H        13.86843655988881    2.80526520528456   -3.04268296815649
H        15.99564533321317    2.55062744759315   -4.24033795929348
H        17.79130042435046    1.14514139793123   -3.29359624926444
H        17.43988708258619    0.01065378911909   -1.12783605551614
H        15.31338662640588    0.29839223758319    0.07683352382888
H         9.79130402171650    4.61654872937338    5.00245040676195
H        10.48864394188364    2.98786849810860    5.08186023972554
H        11.50669911277732    4.39838512604286    5.39796438231080
H         8.68575005946974    4.10915623598164    2.76493970073189
H         9.51266969504336    3.79318141574965    1.22147832999018
H         9.38128685581336    2.50948920802086    2.41991463276938
H         9.93297480152180    6.24307445524185    3.09164416679366
H        11.66830775544011    6.44860109475046    3.39496876362278
H        11.08720503699441    6.18288044898972    1.74439243485156
H        13.34192692662456   -1.33744721557634    3.23064775781621
H        12.99776181793121   -0.96431670434603    1.52516742988402
H        14.42562907853714   -0.27581670021790    2.30308040266504
H        13.10225048047857    0.24715682166282    5.20893554543699
H        14.19675731992597    1.45309637290242    4.49986150586643
H        12.63640544227457    1.96002024762074    5.14684894235152
H        11.05041239928890   -0.76477910641986    4.08112932975169
H        10.18062694626451    0.77285081289004    3.90927775763296
H        10.37338009673944   -0.29410122311862    2.50848323806684
H        15.11804185238024    5.92562542463332   -0.66333474890694
H        14.27054418072922    4.52295095320146   -1.35590881092015
H        13.34375610009244    5.89722818451073   -0.75001230876293
H        16.60705993596665    4.56650220063546    0.87239101517297
H        16.06920620097095    3.38634846447991    2.08792461675643
H        15.94722978784130    2.99280019996783    0.36944262567181
H        15.36915415568649    6.44683977916111    1.87848114773754
H        13.61331777464798    6.66699782292083    1.97607009948240
H        14.43984844642780    5.65413766535591    3.16811470381907

