125
CSD_code = YUTZOC | q = 0 | S = 0 | Stoichiometry = C38H70N8NiO8 | MND = 4
Ni       13.97773662499175   10.59684867382273   13.56955931390091
N        15.74268742066079   10.37077030366060   14.20155541495344
C        15.86862658110161   11.13329146858221   15.44381412305753
C        14.65851239382059   10.78711057343067   16.33115691431114
N        13.49403901041927   10.74114777175522   15.41949994177272
C        12.30301118077124   10.55541600888912   15.98731022305272
C        11.04885178842840   10.63960885850661   15.06307393298393
C        11.27503272510700   11.56187814872082   13.85898571455516
N        12.23118953750641   10.95732475889905   12.93780589045911
C        12.39190360495499   11.72584897966757   11.69988910780334
C        13.42932891135861   11.02105296015459   10.80711202369507
N        14.47772689686692   10.52334246672321   11.72356790442988
C        15.54218839211960    9.94791472091266   11.16558558824756
C        16.68819523104739    9.51241508586683   12.13294505953141
C        16.85791025574092   10.52758366005044   13.27528570695239
C         9.88105781612813   11.18602411590438   15.88743408559205
C        14.49579711505203   11.88714369657760   17.38659085105704
C        14.87964792472494    9.42956639483616   17.01337212473112
C        17.99431727018178    9.40273847773849   11.34408415309685
C        12.75998592403842    9.87131615136788   10.04131659751952
C        13.99740329998339   12.04581936218936    9.81762720848832
O        12.10907646130394   10.33108137648504   17.18263401336823
O        15.69767356763898    9.74657650513488    9.96202535780827
N        11.73792748826390    3.96459849991361   11.82867283003474
C        10.56074756574452    3.52594187321947   11.10067505077610
C         9.44510618343381    4.58182382828380   11.21415285790097
N         9.15281280754059    4.83388956190645   12.62232487302038
C         8.75350718924400    3.92629902787344   13.52137306699336
C         8.52614944970875    4.50287250222813   14.94234925214734
C         9.49840434384991    3.77133542744211   15.88852822174414
N        10.83885608402820    4.30779666272336   15.75934406918162
C        11.83333524244777    3.51268070724149   16.45821527251096
C        13.23561622291190    4.12457556223346   16.29042223642872
N        13.56845919699262    4.19381194263826   14.86942968393541
C        13.66318875997426    3.15635873459105   14.02878030157032
C        14.03370219978203    3.55042502535558   12.57618392561079
C        12.87677604338664    3.08187580337525   11.67399120192517
C         7.07635256733274    4.18284813867511   15.32908457052131
C         8.18156466307195    4.07928524890955   10.51214920623005
C         9.91690207219706    5.90297225588206   10.61073135797197
C        15.32170537072773    2.79774926527896   12.21735513017851
C        13.25570288818320    5.55165284469780   16.83195890848066
C        14.26787517499607    3.25599438008769   17.01374221921580
O         8.57724772349160    2.74404251412428   13.30006272259980
O        13.47756350957634    1.99080331301191   14.32082647997879
O        10.76928814407536    9.36282300062806   14.47266704727261
C        10.53501721038763    8.26635093846562   15.33657700314721
C         9.05979056089959    8.08761783394381   15.72137254764570
C         8.75381372213212    6.63533505063719   16.07555825577004
O         8.77123249742420    5.89759229110974   14.86719343001409
O        16.38161611613733    8.29318332229796   12.82455168618352
C        16.12369493693742    7.12911682668985   12.07201586389483
C        14.69169179683181    7.04357125296140   11.53584468466185
C        14.28834962685965    5.59393671074406   11.29237882782380
O        14.21730300733549    4.95727443516394   12.55600694247170
H        15.74392235153460    9.37025026127679   14.44066564454202
H        15.85875011119023   12.20074320092630   15.20017555283812
H        16.81209369249707   10.89931038488915   15.95496311398637
H        10.31202246577895   11.70877924710210   13.34893678624723
H        11.65007811957408   12.53079674071353   14.19785077848730
H        11.84390553009973   10.03365604288354   12.70848934895830
H        12.75572497796615   12.72338628799359   11.96784728834979
H        11.43190075667428   11.83386254710342   11.17773835952431
H        17.80417085921911   10.31965056816598   13.79476581250642
H        16.88352483371967   11.54531172286877   12.87881775536716
H         8.94099926353751   11.02077407743209   15.36794093435274
H         9.86120450844072   10.70123983392021   16.85914101061410
H        10.02185904428881   12.25238058826260   16.04732126237434
H        14.26526732908312   12.83523357979788   16.90543580156777
H        13.68632765652288   11.63373324528750   18.06281165815911
H        15.41692047391212   11.99147971822772   17.95464011152081
H        14.98044515346115    8.63491314475030   16.27542554578257
H        15.77155445422939    9.45858465745301   17.63470687329309
H        14.02170942707154    9.20520553803309   17.63970397647705
H        18.72401043947632    8.82901677426712   11.91076381539932
H        17.81054647084307    8.92576718204932   10.38514243424559
H        18.38628843974285   10.39757340043807   11.15113716807230
H        12.36515052639743    9.12304055239632   10.72613808974357
H        11.95093426127189   10.25332673119283    9.42324436358621
H        13.49498323585769    9.39896838138230    9.39735775874541
H        14.52932561099307   12.82853830269940   10.35419102717237
H        14.68894836900384   11.55797392924907    9.13896364246143
H        13.18894267978939   12.49343276927181    9.24475298259326
H        11.50282492528468    4.02750459858434   12.81586921574027
H        10.18050533819374    2.55902113201269   11.46029336609577
H        10.83799804663894    3.41672801192378   10.04850829081792
H         9.24773918260658    5.77957118496483   12.96278296407025
H         9.18541531571784    3.90084226794984   16.93052484948624
H         9.43902160916520    2.69628366117843   15.64981048899165
H        11.08804403060328    4.35226058132894   14.77416128352548
H        11.85543696207404    2.47007506749248   16.10681421635318
H        11.57100328235913    3.51025141743515   17.51996815732203
H        13.74826747267421    5.10322280364793   14.46896582949588
H        13.18182027698115    3.10775616437672   10.62239386380291
H        12.65437497783642    2.03553158523313   11.93932689912821
H         6.89757524001729    4.37973017101742   16.38343935573170
H         6.39774320131287    4.78775023773752   14.73132938627182
H         6.88482530463032    3.13270282225604   15.12757422838620
H         7.83028813236618    3.17335818720850   10.99788521771764
H         7.39864413688044    4.83218960584069   10.56660450807435
H         8.39065208132168    3.86197283632845    9.46832744541454
H         9.16165534601715    6.67403199100171   10.74691941817424
H        10.84223261081561    6.21316256824537   11.08928215198980
H        10.10035429014297    5.78245039028090    9.54670960448443
H        15.54688606050913    2.88787095440199   11.15734555482137
H        16.15140478789923    3.20224153670653   12.79312145527120
H        15.19687719335103    1.74773085695222   12.46561295345811
H        12.48346292817478    6.14349602497702   16.34864824738393
H        13.06526988962169    5.54608769160235   17.90131204337104
H        14.22676641221530    6.00966212770396   16.65773379497885
H        14.27731815541945    2.25976890363590   16.58098747659865
H        15.25906694310230    3.69171790218425   16.91150877254369
H        14.02297094137624    3.18075366457531   18.06949459304792
H        11.15233993820594    8.34260690962863   16.23609036860918
H        10.84899270573491    7.38906157880578   14.76202890350303
H         8.80218669287235    8.71735388151710   16.57126353680983
H         8.43901375848425    8.37410615595655   14.87033244915994
H         9.50950217677126    6.25071360034906   16.76889011586130
H         7.76407875486105    6.57138676105042   16.54664852366814
H        16.27769302568953    6.31420079587853   12.78651207259482
H        16.84192988245088    7.02126876267340   11.25301958584093
H        14.60228194725698    7.60042388627245   10.60559926872949
H        14.02008552817271    7.48496711634380   12.27827631433901
H        13.31063378826237    5.55152346335733   10.79938846322503
H        15.03420538390841    5.10567542715389   10.65227488894065

