81
CSD_code = YUVCOI | q = 0 | S = 0 | Stoichiometry = C31H38BMoN7O3 | MND = 6
C        -0.42237353112563    2.55706042012810    2.42283336158875
C        -1.73738326259997    2.25887954007041    1.99931886687825
H        -1.98938219168685    1.21628619349906    1.87850674426724
C        -2.67086816219551    3.23984347860725    1.76807778648004
H        -3.67017712093518    2.96732489204155    1.45956859225199
C        -2.34112187206152    4.57996721397771    1.93896968773358
H        -3.08110886556014    5.35009900575966    1.78338284121572
C        -1.05740090414008    4.91574790046015    2.30794094772290
H        -0.82094137277322    5.96146554548035    2.45919261069564
C        -0.07427887218967    3.94212741911311    2.53278088593380
C         1.30978986635432    4.30976212694450    2.80601570046653
C         5.13122618821517   -0.07365908837132    3.16210503833998
H         5.94315021812031   -0.67069363838244    3.52567943680989
C         4.87295017635519    0.41417357135973    1.90137883477542
H         5.46357374859102    0.28110841179833    1.01880568751631
C         3.67203971457777    1.12170150056168    2.02558980237180
C         2.96796817299259    1.84193544972191    0.91862325904652
H         1.99251088437469    2.17450716471943    1.28234449422909
C         2.73253844746474    0.89723211010715   -0.26201174605875
H         2.14714296110810    0.03781277807665    0.05619176458909
H         3.67539343418685    0.54521168516657   -0.67501587480753
H         2.18488183064521    1.41477906223000   -1.04643540822152
C         3.78916705903248    3.06040583746189    0.48644983832519
H         4.75489223619366    2.74949043050985    0.09210744806878
H         3.96053276195058    3.72553747965304    1.33020296520168
H         3.26154023304035    3.61266814206908   -0.28856420967123
C         4.68248079651375    1.83557819725844    7.20458460492217
H         5.50621338289282    1.27119400655616    7.59270656910644
C         4.19703401792913    3.07297242637546    7.56342341276104
H         4.56500709030878    3.71223061626761    8.33889749008568
C         3.12794192424915    3.31637409440502    6.69289640204767
C         2.20070271917480    4.48624610092588    6.65050571226225
H         1.74517461468595    4.51375893737926    5.65235378911575
C         1.07493189975586    4.26688134541961    7.66711669525614
H         1.48226870282574    4.13330319077991    8.66737698372639
H         0.51000828998247    3.37956405488208    7.38596352778872
H         0.40224385826036    5.12091637202535    7.67172814513323
C         2.93706842596991    5.79853209961109    6.91809331950233
H         2.25408422185792    6.63712230478735    6.80500566739844
H         3.76016449364534    5.93107922236753    6.21961643804339
H         3.33241899401004    5.81554381041338    7.93101099415108
C         2.29857589886242   -1.81664162736722    6.19785426975399
H         3.05528506237729   -2.47614068674917    6.57198390572936
C         0.93079429578827   -1.95598649757418    6.15344641730003
H         0.35255305432535   -2.78063266788317    6.51553161760005
C         0.45848388871520   -0.79338429437035    5.53118403775786
C        -0.94543067329784   -0.43644974063048    5.16294818124443
H        -0.99862111170899    0.65546000190041    5.07433711123893
C        -1.93909670634438   -0.90476972519190    6.22539033349183
H        -1.96656458975484   -1.99138179294403    6.27785508949117
H        -2.93706388181496   -0.54955445794859    5.98052817110949
H        -1.66413815526074   -0.51396650802621    7.20225519509056
C        -1.27071174755882   -1.05253187849000    3.79752480226651
H        -1.14572084746664   -2.13395006523250    3.82653838463027
H        -0.60505582465827   -0.63525778245014    3.04459399279195
H        -2.29909411981936   -0.82870192308961    3.52375337484735
C         2.93181514560860    6.19674983586752    2.52733181279794
C         3.98404243469306    5.70054393245448    3.29764699130220
H         3.88896076216644    4.74940496946083    3.79673169457148
C         5.14839355684238    6.43456472752015    3.42992472809295
H         5.95406015323524    6.03855096243858    4.03114712509847
C         5.29266861729821    7.66073927128704    2.80302995023419
H         6.20748828835261    8.22342877126214    2.90823783829427
C         4.25008487326050    8.15842649804187    2.03735212163775
H         4.34849507542044    9.11349756035022    1.54315468775657
C         3.08198953052729    7.43711171467800    1.90060681923360
H         2.27048186618370    7.83140455751734    1.30416485960299
O         0.23500716373903    2.43562854489007    5.23286210568158
O         0.39926060950967    1.57935254823319    2.63442770608222
O         2.13992242897967    3.55675933983193    3.36788183048083
Mo        1.54646399824012    1.90095602732759    4.42195688013120
N         1.72124199671383    5.53581970734584    2.34813721570206
N         3.24781679550351    1.05785152589354    3.29316768110004
N         4.14678834377864    0.32414736395576    3.97383990378910
N         2.99088487275399    2.27156786845597    5.86965124698648
N         3.93643004207628    1.37109117140432    6.18943524266683
N         1.49821191865278   -0.01000582195664    5.22714331789762
N         2.61633908099278   -0.63495461390952    5.64073527943981
B         3.97986630061722    0.02493664106425    5.46884475445244
H         4.85578404671768   -0.65868758126956    5.87303457555207
H         1.03880234590570    6.05083271132511    1.80950964015460

