100
CSD_code = YUVFOL | q = 0 | S = 0 | Stoichiometry = C28H65NOP4W | MND = 6
W        14.68186681981590    7.50305854972933    3.34176123993850
H        14.88158444025739    6.12400315253710    2.39612424058826
P        16.79052305052896    8.37453230833490    2.47393359061473
P        13.90558517321392    8.56441976988709    1.24482556973087
P        12.57844633252542    6.59210563238077    4.18289036787928
P        15.50912251682411    6.08889552668976    5.19693636119601
C        18.42824004516835    7.46249479517450    2.61416091081000
H        18.51950952619623    7.25638817097385    3.68862482641568
N        14.47193361123844    8.95234671228989    4.33552722935756
C        16.62347201898112    8.46232195903574    0.63125647204420
H        17.50723676696792    8.90398351727244    0.16051487551419
H        16.53279670595434    7.42675175761940    0.29675787160606
O        14.32863706454807    9.93934864116611    5.01322727513186
C        17.09806733231454   10.17898223063109    2.88801033717451
H        16.07279443003085   10.57492689578600    2.86750858028594
C        11.14580540443081    6.08944575149409    3.07448803610652
H        10.95285212052520    6.98869801844553    2.47499846674983
C        13.08788823486899    7.50452795465205   -0.08237066511513
H        12.23914844981881    7.04527479094393    0.43599160533410
C        17.59807829958312   10.32833143168835    4.32127482258632
H        18.57504371428257    9.86763238495781    4.45700928809157
H        16.88956554322158    9.87532444731163    5.00951099043344
H        17.68114840604728   11.38366531353725    4.57923446809332
C        16.28883399232034    6.74442125888409    6.77015424666678
H        16.34823460666585    5.91039398097647    7.48020562918187
C        12.96994194462028    4.96058542116958    4.96784195534001
H        12.08810190542503    4.50646540537068    5.43023736616747
H        13.30434586830627    4.31685603093092    4.15156719557686
C        18.27620740439983    6.12735282785058    1.88402562034620
H        18.45665899065126    6.25094167160045    0.81791561614641
H        17.26959655910660    5.73578979072805    2.02471320884443
H        18.99219642666490    5.39714818679784    2.26045778851140
C        12.81052313088299   10.08315695885408    1.16258274967718
H        12.82015856786512   10.44045269035922    0.12552099906447
C        11.39204606204043    9.71271122135381    1.57880854928710
H        11.42458720842832    9.22802663419443    2.55132903595331
H        10.92126884738734    9.03375702157008    0.87148629871503
H        10.77061849108723   10.60441248071194    1.65770662644862
C        16.68684820698303    4.66562683455153    4.82180185235996
H        17.53179482696735    5.15085826154209    4.32124635227316
C        17.68390332236062    7.27689996101870    6.46552181179633
H        17.61691285049902    8.00144451228055    5.65786338353125
H        18.36738860750889    6.48671224960689    6.16322778714816
H        18.10428377840364    7.77247712332400    7.34028877992294
C        11.87322526301507    7.53048898684453    5.64717045850358
H        12.79528921784804    7.84653219506024    6.15540757653383
C        11.16725892891172    8.80179076946895    5.18668960417804
H        10.29084082715586    8.57868231514714    4.58068283645130
H        11.85284870686162    9.41848185251491    4.61180627901679
H        10.84448259134469    9.38269568247617    6.05010882638751
C        15.35745620723368    9.22207337677509    0.26859833216036
H        15.15736815582124    9.14664866298635   -0.80436226841424
H        15.47132410533544   10.28060985661876    0.51208130398900
C        19.69953485490728    8.16885913609383    2.15321981944312
H        20.53260013633131    7.46650884669796    2.19699351559864
H        19.94505442592425    9.01126326085539    2.79406258017658
H        19.61135141119933    8.51614949292860    1.12648495420057
C        14.10064564006230    5.13343532503399    5.96935789258570
H        14.45307413401405    4.16023758725150    6.32385262932271
H        13.75133739568230    5.69697964628854    6.83719914567168
C        17.94336315098515   11.02567350555005    1.93788155975844
H        17.87210510407492   12.06870052446871    2.24801971851516
H        17.59670857073863   10.96676413097036    0.90977452922388
H        18.99133677446603   10.74598532585553    1.96533587219413
C        13.33027695137006   11.19779575672798    2.06378523433303
H        12.63461289376973   12.03674864497041    2.05482568070121
H        14.29729033260686   11.56991507577659    1.73192628116267
H        13.42566121477453   10.85295068540628    3.08920960670296
C        11.65098026392373    4.99148746984449    2.13740216096217
H        11.59487842593305    4.01854282258389    2.62180581967588
H        12.68627035341832    5.18366074262509    1.85878047475727
H        11.04652254374617    4.94785958614544    1.23171304851921
C        12.56353913960760    8.22607807469492   -1.32467087809022
H        13.34561045849125    8.79829460018483   -1.81971343944346
H        11.73723881321007    8.89518107156615   -1.10402703473833
H        12.20393224275138    7.48120243365847   -2.03469540649629
C        17.22209806566882    3.87101043937477    6.01382234556278
H        16.41692729110691    3.45581924148013    6.61670844085830
H        17.86301040560224    4.46362670432618    6.65972065785146
H        17.81388652747834    3.03594020513358    5.63862331253747
C         9.83522586344917    5.65892010796944    3.72615238251945
H         9.15677097141206    5.29449866886188    2.95408462179692
H         9.34623035583157    6.48851415937097    4.22940902137126
H         9.99163181925575    4.85243980348069    4.43866564847116
C        16.04500950644684    3.69612527606183    3.83120154845613
H        16.80484360622098    3.06166758848099    3.37563852010278
H        15.53498417503015    4.24241608989721    3.04132373675468
H        15.32538124979266    3.05031245125524    4.33127051569325
C        15.44677781663560    7.85207190486501    7.39370463388812
H        15.96022956632744    8.26351871023274    8.26259244035645
H        14.47828597025519    7.48596739359581    7.72791259455096
H        15.28575749458813    8.66022669421268    6.68627477670667
C        14.03249516192750    6.38774989692002   -0.52248647062133
H        13.47836542208071    5.60454985864470   -1.03915637836207
H        14.52718087192086    5.94687127753700    0.33971910885140
H        14.79075192489497    6.76742730811938   -1.20506283481677
C        11.01338764648134    6.78258303065037    6.66473048619886
H        10.84164509255379    7.43732227002822    7.51971191703511
H        11.49675811717497    5.88263792696489    7.03499977720915
H        10.04424823643123    6.51185531224636    6.25883286996373

