37
CSD_code = YUVPUC | q = 0 | S = 0 | Stoichiometry = C14H16Br2N4Zn | MND = 4
Zn        2.41962540613882    1.37449569504117    3.16171365451948
Br        0.97108719095061    0.76970492538974    1.35865866308478
Br        4.14261732841138    2.96401842468129    3.30068071392484
N         3.08299532938261   -0.59623305363231    3.58063198396770
N         4.02641881657496   -1.18893791534642    1.55050693845620
N         2.39137227413581   -2.49300735075113    2.27239911912742
N         1.62852435654392    1.14480362238235    5.09672663959664
C         3.15666926072459   -1.40258933515633    2.54407322472798
C         5.05711974784788   -0.19127395068074    1.51082425888845
H         5.25137367081146    0.17583308591167    2.51653181389353
H         4.77048923890310    0.64751921287360    0.86940277634057
H         5.97155893320501   -0.63493273987917    1.11364566033104
C         3.78657630422929   -2.05755430536546    0.42033012325535
H         4.67640068800961   -2.66381605200207    0.21869081548858
H         3.55424570433705   -1.46656251766420   -0.47104414504330
C         2.59449809536928   -2.89904886881028    0.88754896548903
H         1.69431871069494   -2.67629286435751    0.30511482833832
H         2.79071708721347   -3.97354735307098    0.84291888137045
C         1.06671842274118   -2.71016624834726    2.80403955349933
H         1.03228952957238   -2.45076316786798    3.85858959293633
H         0.82353668484846   -3.76664324450930    2.69322346594352
H         0.32843446943200   -2.11077779143165    2.26058992533464
C         2.68181175762452   -0.98354889437239    4.83133372211794
C         3.02406223980290   -2.20599417185199    5.39069419568335
H         3.56810329915132   -2.91930587542166    4.78882161893431
C         2.69240516975790   -2.51679264618342    6.70849549268717
H         2.97948175232327   -3.47967045410650    7.10405435490530
C         2.02012737681419   -1.62205940766319    7.50016008765350
H         1.76633995584919   -1.86118210174431    8.52126798030424
C         1.65360435493314   -0.36691889867886    6.98242084748080
C         1.98012443853961   -0.04042719852141    5.63874165912821
C         0.96431023768826    0.60519922571708    7.73610743572562
H         0.71024442268837    0.38940436291958    8.76385934235222
C         0.63255104454254    1.80114945369788    7.15909288441623
H         0.10900954215303    2.56815858724431    7.70681438474609
C         0.98731031073291    2.02854788587050    5.82423765168705
H         0.73912684732882    2.96541192567708    5.34310088871105

