65
CSD_code = YUVPEM | q = 0 | S = 0 | Stoichiometry = C28H28N4O4Zn | MND = 5
Zn        9.19837453277814    9.23864620185221    2.62799371569825
O         9.28764808807477   11.12743516038846    3.37065283108264
O        11.08856135467430    9.97819475770678    2.92844650346035
O         9.41672475520901    7.55847723127837    1.37098367604631
O         9.10932383516022    9.58512667839063    0.61453286378454
N         7.11537349865365    8.76463679498314    2.76251495732031
N         5.92082454264661    7.68719039880676    1.04449807759161
N         6.15022510420887    9.99960484005459    1.08196462587004
N         9.20779810602162    8.08498721807983    4.33015945287592
C         6.41394054422083    8.80173283664616    1.65059451618301
C         4.71909356575310    7.69674517126053    0.24492090596772
H         4.23593722538612    8.66820974808813    0.30361798825729
H         4.03154806249580    6.93971585108527    0.63492912162302
H         4.92717011457065    7.45669947725038   -0.80197377858661
C         6.48592483831866    6.37950629084429    1.27239404399333
H         7.51034309583158    6.47752276801083    1.62655805913746
H         6.49615202625465    5.83895685695249    0.32349163229763
H         5.90527841120489    5.80578087298285    2.00313560476424
C         6.39288734423809   11.19388105785036    1.86556613054922
H         6.10159720463402   11.01502289668698    2.89725706135465
H         5.79024423031555   12.00027573508449    1.44734568989762
H         7.44660438845278   11.47777880897698    1.85429737726665
C         6.28886552439643   10.21416528308559   -0.34381683728449
H         6.39907379826800    9.27214583265272   -0.87163815833450
H         7.19067687666828   10.80362341618908   -0.52425889594351
H         5.42230650980712   10.75592155051631   -0.73051595339822
C         6.90702284589662    7.86946698860994    3.77074225788808
C         5.66106664711029    7.35263934921957    4.09859187181068
H         4.80245001275197    7.62676038866471    3.50227136985957
C         5.49094705570036    6.51184166527616    5.19926136611715
H         4.50305786032760    6.13055138351760    5.41504165331329
C         6.54739573431801    6.16475114844939    5.99990752835430
H         6.41486222000377    5.50422642384216    6.84327931674016
C         7.82732396914929    6.68371925855843    5.72836724194932
C         8.00946311239866    7.54896944404144    4.61733876268942
C         8.96468771604016    6.39072805250110    6.50935609214473
H         8.86226202121001    5.73416740175664    7.36217547749735
C        10.17320393742777    6.94067492167092    6.17694024580287
H        11.06195074693778    6.73264319466896    6.75204034796562
C        10.24833187725248    7.79722302735794    5.06885279710515
H        11.18021169100755    8.26087131516712    4.77917622601541
C        10.53719290308702   11.04217929755136    3.28959154569706
C        11.37587752746058   12.22198661716577    3.64395302153179
C        10.77785732876162   13.38720410943869    4.11097367490355
H         9.70312101191637   13.41400333936127    4.20781945384122
C        11.55864854310656   14.47951257861978    4.44056828419920
H        11.09537482323996   15.38557829889297    4.80420854725928
C        12.93636412565547   14.41415991766315    4.30410819079120
H        13.54517962138154   15.26913243182116    4.56211788325526
C        13.53485980350031   13.25494929058486    3.83623784896181
H        14.60905734230573   13.20825573415160    3.72884952439071
C        12.75817216162532   12.15967267037640    3.50660115459730
H        13.20066852578296   11.24699001734750    3.13745159495455
C         9.28572661487289    8.35938124706235    0.42006662674354
C         9.27610055058244    7.83901105355856   -0.97940247770709
C         9.22680664523221    8.71995613863087   -2.05379040492571
H         9.22084011416711    9.78062281353460   -1.85542328325895
C         9.19816186868416    8.23255997944787   -3.34724226602531
H         9.16356189120325    8.91733268040129   -4.18233763961507
C         9.21719492911856    6.86558565486815   -3.57376299932766
H         9.19416665882420    6.48586707649336   -4.58542284533368
C         9.27097513980325    5.98469246534456   -2.50502174440929
H         9.29201061314084    4.91943269147736   -2.68464720931924
C         9.30223477311803    6.46836732047485   -1.21047069713050
H         9.35461145765761    5.80124887671227   -0.36341955078422

