63
CSD_code = YUVPOW | q = 0 | S = 0 | Stoichiometry = C24H30N4O4Zn | MND = 6
Zn        1.96434509795086    4.92427101570211    2.44704546844469
O         2.09542043802200    3.85796670498427    4.16202145664354
O         0.98140062591453    6.31634266602969    3.57286724944213
O         2.94077998814534    3.52871144438053    1.43959778585661
O         0.25173241538729    3.99747844759690    2.01649626798932
N         3.76650341475755    6.05688875679200    2.81302746463672
N         4.84260128270181    4.88728115680874    4.51100414686867
N         4.07034096388167    6.89017301736254    5.03192158345486
N         1.87098502413397    6.28377262644848    0.91723622068985
C         4.19134492303889    5.96534541074679    4.04115811979556
C         5.06731793850750    3.67403931667870    3.78111681298775
H         4.81055280412052    3.84829627479298    2.74001933001177
H         4.42520392518314    2.87704277523217    4.16125044977917
H         6.11544890632397    3.37862739995833    3.87395351914708
C         4.92464676981872    4.90802077049841    5.95333338469559
H         5.94325166367256    4.67542015576330    6.27897625106814
H         4.24205046011272    4.16428554958368    6.38428371842190
C         4.50846789002301    6.34389724798610    6.30147196397902
H         3.69516552336650    6.37074495401791    7.03409441581485
H         5.34655356365907    6.93254924909588    6.69417781862793
C         3.19240031356899    8.02848945061162    4.98160473284811
H         2.42211938480999    7.86242759281775    4.22802410631760
H         3.74310912593582    8.94114876992678    4.73448663596388
H         2.71022515255140    8.15571850014947    5.95134637718257
C         3.72087402671755    7.20394493740195    2.08674450848789
C         4.64466229580489    8.23476277657908    2.20805329021743
H         5.41232535743102    8.16560795081484    2.96541264340450
C         4.61542583850228    9.33636281879761    1.35364273510768
H         5.35080274840917   10.11767344878518    1.48543785481722
C         3.68008443530219    9.44162185845366    0.35656539145579
H         3.65933101481454   10.29804129376191   -0.30062530114924
C         2.73458958327503    8.41474966375900    0.17737470362294
C         2.75227909112195    7.28838234653555    1.04244258409608
C         1.74674784830553    8.43566817907389   -0.82900506694627
H         1.70389434687763    9.27626713097343   -1.50803656159798
C         0.86256594438089    7.39576331590273   -0.92830166586910
H         0.09462652193982    7.38311360715805   -1.68650904149227
C         0.96333147082805    6.32965878332412   -0.02212221736574
H         0.28047656013118    5.49429695206096   -0.06497820142996
C         1.07517059138569    2.58031467714480    5.88960769324022
H         0.11473504091635    2.09955200017276    5.71825591183564
H         1.14089517967741    2.84174925477267    6.94389208474265
H         1.86978692157007    1.88356201350938    5.63422091143069
C         1.18155817734016    3.82728125975629    5.02409852417566
C         0.26301304021901    4.84670076952081    5.27092375301214
H        -0.47499472482225    4.69648662729335    6.04427322592074
C         0.19228145491054    6.00851879339410    4.50029424286251
C        -0.92158194275857    6.98725746548504    4.83002946028292
H        -0.75987880574826    7.92243957358675    4.30010834698251
H        -0.96955263519594    7.17157596699481    5.90068035776285
H        -1.87257143342688    6.56456239535209    4.51254724046980
C         3.56711643769536    1.28612487445057    0.97469431347454
H         4.49262304468718    1.76500715295601    0.66638602469095
H         3.20213655571424    0.64339326553083    0.17773825103260
H         3.76384021484172    0.66913544128463    1.84970449529995
C         2.53342967210708    2.34456209867492    1.32552643911181
C         1.21950214958635    1.90957053577796    1.49465670595746
H         1.00911265356478    0.85733817674447    1.37673011967462
C         0.16982638457604    2.75394988727863    1.86009623019925
C        -1.19339072564352    2.11212805776881    2.06154516658438
H        -1.89896588300717    2.85835250606984    2.41719689415395
H        -1.12457433649986    1.30234193948415    2.78410570360663
H        -1.54990171105535    1.69924094965015    1.11997696746760

