74
CSD_code = YUVQEN | q = 1 | S = 0 | Stoichiometry = C28H32BF4N8Zn(1+) | MND = 5
Zn        2.95707330713255    1.58618131899898    3.91889491800332
N         1.36561326687142    2.82875445751135    4.14119069542030
N         1.46247742120596    3.55610164240236    6.35772796931557
N        -0.39078148808230    2.52705924344096    5.73424980604592
N         2.24443019654052    1.35375536456471    2.04527096521408
N         4.79525665586906    2.38554668124371    3.56998304143904
N         4.76966424251344    3.03595746286027    1.32935736661352
N         6.32277628888281    1.57854009409557    1.91589000192338
N         3.65343437088698    1.34292159015449    5.79268496609117
C         0.81672543825528    2.96809528321897    5.33337996106329
C         2.63415833966372    4.37913149231624    6.26156013755928
H         3.10133158744827    4.22612441991694    5.29226948089782
H         3.34137072418286    4.10844771007153    7.04733644806143
H         2.37320536685879    5.43596062300696    6.37461090463693
C         0.64582198355318    3.58729634545916    7.55482226685409
H         0.40631356201171    4.62267319151970    7.82140930783878
H         1.18215667848847    3.13299091434595    8.39326615256255
C        -0.60127450529677    2.79200456353238    7.14747431360095
H        -0.68504630492964    1.84994692441932    7.69884828591060
H        -1.52651789802000    3.35712850902413    7.29205628423144
C        -1.19309792925232    1.53968929485820    5.05728658487366
H        -0.57207460248996    0.93455849524363    4.39879524270952
H        -1.98210599608999    2.01040887643069    4.46555970096629
H        -1.65125434607871    0.88642144205925    5.79849146882740
C         0.59736772558862    2.78701957512418    2.99369487715493
C        -0.55824931949126    3.52900857746984    2.82045476392495
H        -0.91383265351468    4.15199275496221    3.62748443375713
C        -1.26276109602992    3.50005938146685    1.61369439597946
H        -2.16175650362959    4.09013216756167    1.52244888137290
C        -0.83606927166329    2.73435359932202    0.56156098104998
H        -1.39265796297500    2.69534829612035   -0.36124032111557
C         0.34922590548612    1.98360398285235    0.67933708304715
C         1.08503099593917    2.02836363053487    1.89269067098280
C         0.85368456265129    1.16502834671231   -0.35217403971978
H         0.31207995676292    1.09794438373439   -1.28410115538923
C         2.01180415871249    0.46220382064048   -0.15105923319738
H         2.41063770567347   -0.19134116883258   -0.90991431849945
C         2.68379520204137    0.59334858707763    1.07045289532158
H         3.59791628971230    0.04837905272161    1.25398387294918
C         5.29636387885672    2.33471064094486    2.35047992972095
C         3.84954648295485    4.13164077092506    1.43767809279405
H         3.05024252106002    4.01819993700204    0.70328060802128
H         4.35969882892655    5.08253929873085    1.25588765889095
H         3.41910385601124    4.13964968495042    2.43554407471072
C         5.49149537922308    2.80579409866552    0.09419025264107
H         5.96953969057128    3.73237213693659   -0.24207211460923
H         4.80591403799512    2.46977800484072   -0.68984900039210
C         6.51743918661102    1.73372206727302    0.48426802244351
H         6.33181600992209    0.78353384056083   -0.02669068941749
H         7.54618052778932    2.04028102549033    0.27404991533803
C         6.87503711942713    0.43728123182061    2.60099999832375
H         6.16360322560946    0.05367768561151    3.33032948393799
H         7.80315071802273    0.69687162228930    3.11602247035294
H         7.08405999186798   -0.34657978333480    1.87406338016494
C         5.58340739743371    2.19605403299686    4.68822718632207
C         6.90650817122589    2.59453653115893    4.76970051246708
H         7.37665254761447    3.04986130058820    3.91097054731120
C         7.63928582802563    2.43432623522014    5.94888048509487
H         8.67054795881932    2.75191263355982    5.96717556814372
C         7.07343607497731    1.87798976678223    7.06489220600684
H         7.64598162561464    1.73412201280927    7.96730327630596
C         5.72065179193810    1.48829491315952    7.04214227974033
C         4.96237356381414    1.66928357117050    5.85566596523326
C         5.06384133237438    0.90761205720977    8.14656350243859
H         5.61549707245894    0.74213884128053    9.06010846506797
C         3.74499479497021    0.55462569794129    8.03872269502573
H         3.22032489891105    0.08804487163174    8.85660961399725
C         3.07162602062032    0.79892489518897    6.83574797890334
H         2.03234035667773    0.52696858542198    6.72502185684156
B         2.59546014598869   -1.22863939951849    4.05851161286432
F         1.65515297397785   -0.16848977721059    4.34608276166693
F         3.77047768324105   -0.48141568594628    3.67448221088113
F         2.84404120579731   -1.91977248000038    5.18604621524840
F         2.16073504528907   -1.94769179434301    3.00763291925114

