64
CSD_code = YUVXIY | q = 0 | S = 0 | Stoichiometry = C25H30F3IrN2O2S | MND = 8
Ir       -0.43740581769274    1.13265158599890    2.48889107611988
S         2.73581251112417    0.37768155352616    2.79516344003773
F         4.31128834923446    0.61109959183408    0.62278146997243
F         2.60837656867608    1.92158480426355    0.54874816091986
F         2.35704739606732   -0.19695140101743    0.20873786527889
O         2.91473927621402    1.66222460945156    3.40511798268146
O         3.68333946119680   -0.65373206883875    3.08748028434274
N        -1.19780391685201   -0.93061296212430    2.07616723147743
N         1.23061081780908   -0.10212603087277    2.90959240011959
C        -0.35080783915154    2.29152477179988    4.51693993948960
C        -1.59260640805167    1.67280281921059    4.42526674045918
C        -2.23997021365945    2.13182612047076    3.20906875360984
C        -1.38884437639424    3.09984656114167    2.58860373379104
C        -0.16043855234783    3.12069016822572    3.34061311072190
C         0.64314030623691    2.20247709206574    5.62017001674290
C        -2.21773097841388    0.76604461418106    5.43632532347565
C        -3.68182653561840    1.90411309481107    2.86854861894091
C        -1.77733111213754    4.06325838812164    1.50951822965072
C         0.95228429452907    4.10461420483268    3.18763650928361
C         3.02048210428852    0.71639347325755    0.93931434725601
C        -0.47789272645135   -1.81623064758660    3.00132980484672
C         1.03852697950702   -1.53599819432698    2.86491642670824
C        -0.75782655047725   -3.28023885975718    2.77780630754078
C        -1.02356415850134   -4.10941616445733    3.85984537221130
C        -1.23613554441587   -5.46376272373169    3.67340369946877
C        -1.18908359921446   -6.00455168133004    2.40026957318665
C        -0.92138317911801   -5.18604549187484    1.31604895163942
C        -0.70311386124493   -3.83291892308967    1.50313939356851
C         1.73519802690888   -2.24053721822665    4.00351310212153
C         1.77928927992314   -1.64802987441132    5.25725115250923
C         2.36592499154153   -2.30573567567556    6.32203797432067
C         2.90138883535867   -3.57043493380268    6.14528170559570
C         2.85413238323574   -4.16804830066809    4.89806221102699
C         2.27298138161865   -3.50671560208363    3.83068530710147
H        -0.02973817959280    1.17086576374564    1.02041528990404
H        -0.97863940049762   -1.20280211131176    1.11760444912924
H        -2.20206179733644   -1.04360155847590    2.20307877346638
H         0.68586971182565    3.15383138038681    6.15307756945966
H         0.38630116032663    1.42238224993399    6.33382021360142
H         1.63271570082053    2.00708388486551    5.20861061002447
H        -2.81727307294334    1.34194179601163    6.14448620861104
H        -2.87443196569803    0.03564394608750    4.96431601131075
H        -1.45782581281007    0.22777142117291    6.00048218018728
H        -4.03378300791195    0.94210478479024    3.23616356802631
H        -4.29314118258731    2.68161244046015    3.33042850738568
H        -3.84065028348053    1.94465132511538    1.79315766747616
H        -0.92063547361437    4.31473373861017    0.89159819359816
H        -2.55127034623621    3.64742187716653    0.87066662338616
H        -2.15833450501861    4.97960271943707    1.96346592768542
H         0.95571115830935    4.53494524169806    2.19073740898491
H         0.84074817509229    4.90724204369328    3.91883506652567
H         1.90737340892480    3.61225724471518    3.35542329910835
H        -0.77093631635589   -1.53735305985862    4.01854090298622
H         1.39123549290061   -1.94749492029885    1.90675111638950
H        -1.05079484925224   -3.69221339001611    4.85595013478148
H        -1.43635559581961   -6.09721626138904    4.52427366980917
H        -1.35448038322890   -7.06099251240236    2.25270137575051
H        -0.87483801377182   -5.60339879396026    0.32132598764602
H        -0.47229849157650   -3.21171520527273    0.64873432665495
H         1.37696040216308   -0.65401483390147    5.37927035882484
H         2.40872544389230   -1.83093003487630    7.29169060815134
H         3.36210473929503   -4.08453875769894    6.97599786825442
H         3.27705219369611   -5.15122357648770    4.75296762745488
H         2.24529349653178   -3.97174354132624    2.85605223906505

