57
CSD_code = YUWBIB | q = 0 | S = 0 | Stoichiometry = C25H22CrN4O5 | MND = 6
Cr        0.56500848102543   15.95742569239331    6.82957052894857
C        -0.64621830321246   17.34729279347959    6.88492346437399
C         0.75633772017110   16.39731096990431    5.02288805787845
C         1.85891290458045   17.22966553696556    7.26596434161805
C        -0.86493148202392   14.84962034878080    6.37292852115170
C         0.15562128859399   15.74077824806061    8.63481662123786
C         1.89382388064812   14.32048220208346    6.80170968929149
C         3.13747612711688   14.72220729362273    4.76987255309847
C         2.75679518216253   14.23699903095209    3.52436403195596
C         3.00653866768662   14.99156331205956    2.39279354796101
C         3.63012840806416   16.22373549001259    2.50144826924446
C         4.01327128406401   16.70214225051727    3.74332547813808
C         3.76846372835186   15.95511385817136    4.88208605729910
C         3.40378704994194   12.71906521583642    6.24571562342887
C         4.52151937454170   12.04321497401100    5.64659095998019
C         5.37367582453561   12.60692122446886    4.68484292405874
C         6.42390475380262   11.85610070828399    4.19920115019877
C         6.62529777390518   10.56756342496101    4.67812586845210
C         5.75600074007553   10.10353987287078    5.65008621825701
C         2.72456280398077   12.29377013650268    7.37908294247062
C         2.46289706128428   10.91523234452775    9.40263376497308
C         2.50078701333974    9.42052410568523    9.71426805699293
C         2.09043151059472    9.16553371704629   11.16200976293714
C         3.00371240577792    9.92580339033289   12.11932829539015
C         2.97448341131620   11.41981060674742   11.81139806163205
C         3.38598492177838   11.67559737874585   10.36471771562376
N         1.84130447782225   13.28820055060267    7.69282214102574
N         2.85194169333878   13.96423006472579    5.93121757992649
N         4.74164395799557   10.80317030442400    6.11968705777332
N         2.83931396218932   11.11332708645348    8.01807954571636
O        -1.40892007778953   18.21207464207973    6.93146612352429
O         0.70063028196842   16.83003693674777    3.95672963407542
O         2.52111653437357   18.13755176762649    7.51974005122348
O        -1.84009756422777   14.30266484332665    6.09563653227540
O        -0.23650549485455   15.74826075378297    9.72096612736822
H         4.06719504388832   16.31404788775865    5.85554936664532
H         4.49825976171071   17.66251906511576    3.82828365635767
H         3.81413486027545   16.81354453650541    1.61658766279807
H         2.70424277703448   14.62109780902764    1.42517791516311
H         2.26667888819899   13.27730070426893    3.45402462549030
H         5.22244032828750   13.61507604046123    4.33816626069342
H         7.08707280346811   12.27347114131255    3.45538283551824
H         7.43254322004243    9.95201631374175    4.31573477623925
H         5.87121290240444    9.11549253464876    6.07892407708687
H         1.19686259061259   13.26393632889433    8.46722522515965
H         1.43356075696066   11.27434569257403    9.53456336862861
H         3.51552804167208    9.05066460643589    9.55086095883718
H         1.83431466917258    8.89050882311980    9.03201031806240
H         1.05830557081098    9.49111069128492   11.30981737651982
H         2.13613555862086    8.09590920605543   11.37320449287169
H         2.68697411194109    9.75376410308041   13.14924212385064
H         4.02591652325626    9.55470490843481   12.01694150722715
H         1.96522991383611   11.80479644087939   11.97522654445019
H         3.64772701033089   11.95340205250187   12.48455625924924
H         3.34991330444926   12.74584351057540   10.14702707772243
H         4.41297895258746   11.33699536188091   10.20755066940735
H         3.62247210751889   10.57502116465376    7.64170560252072

