29
CSD_code = YUWCIC | q = 0 | S = 0 | Stoichiometry = C12H12HgN2O2 | MND = 2
Hg        0.00000226222761   -0.00000617348235    0.00000356732596
O        -0.96651485191666    1.37731399537363    2.20411798761505
N         0.90369369159417    2.53729870070651    1.65799417260798
C         1.27092531360030    1.74514148281183    0.55567935733561
C         2.42125470417872    2.29623576268158    0.06134628436193
C         2.77196105807569    3.42897426991693    0.85226349299240
C         1.83001604187923    3.55170750466489    1.81727607696186
C        -0.20964454055855    2.30366962318135    2.42802342964148
C        -0.44648882167672    3.25722803533306    3.57099844003021
H         2.97335931189624    1.93476201258917   -0.78718869196034
H         3.62477763164640    4.06332601865358    0.70637610136070
H         1.74772265156425    4.27736812052880    2.60037517946354
H        -0.55605755738750    4.27458559618880    3.20139394929817
H         0.38613913328446    3.22297808263003    4.27054064168352
H        -1.35770250643065    2.96188154490845    4.08391226775373
C        -1.27095001683877   -1.74511756429138   -0.55570742677762
N        -0.90371153161179   -2.53728532085153   -1.65801177499079
C        -2.42129181695394   -2.29619846537488   -0.06138456682834
C        -1.83002416323919   -3.55170572735952   -1.81727879977769
C         0.20965367175342   -2.30368118777793   -2.42801275135555
C        -2.77198786676191   -3.42895021619803   -0.85228569153756
H        -2.97341124057907   -1.93470880504564    0.78713520402130
H        -1.74772394587693   -4.27737551233605   -2.60036762932441
O         0.96654296541740   -1.37734055335851   -2.20407392165940
C         0.44652560061808   -3.25725718018288   -3.57097121324601
H        -3.62480850036116   -4.06329854760341   -0.70640028200261
H         0.55603326183095   -4.27461915397249   -3.20135803297348
H        -0.38606680685124   -3.22297499611953   -4.27055406297375
H         1.35777686747709   -2.96195134621451   -4.08384130704588

