56
CSD_code = YUWFAX | q = 0 | S = 0 | Stoichiometry = C28H24ClOPZr | MND = 12
Zr       -0.67004653769321    3.17876816510413    5.26177516252506
Cl       -1.92194897574228    2.50751776966890    7.19162631361734
P        -1.04758309755662    3.73315546086607    2.30917796004985
O        -2.40957461349336    3.39667382837461    4.48086439706641
C        -2.85004942599337    2.41816154862511    3.69380521242026
C        -2.32446517839119    2.41752520580530    2.38454417355791
C        -2.71358194808344    1.45774392623061    1.46847778195493
C        -3.64777531303395    0.50454614431703    1.85082998819536
C        -4.16799594572744    0.50265249968718    3.13641720531983
C        -3.77827649031038    1.44978687244614    4.07077268986618
C        -2.07595256802682    5.21416103310192    1.95959411225784
C        -3.44280581767534    5.28480968906937    2.19874630595769
C        -4.12796009588167    6.46269695292784    1.95379321198123
C        -3.45878490792336    7.57609735176840    1.47466233361526
C        -2.09432490592081    7.51325005161659    1.23893061931205
C        -1.40653508668720    6.34081303747011    1.48489427353237
C        -0.41486669271653    3.46491139459103    0.60472167240413
C        -1.21002796508246    3.66506924230325   -0.51985137911316
C        -0.69614667992163    3.43984021123125   -1.78321260914535
C         0.61486675447514    3.01665704359021   -1.93747196205943
C         1.41384231338759    2.82121130944067   -0.82394665008452
C         0.90021992320597    3.04648435659139    0.44131211952594
C         1.20082605668816    4.81985997590241    5.80447867786669
C         0.30274054972044    4.78433414318733    6.89223154190108
C        -0.92471147031329    5.34293340787669    6.45924058302384
C        -0.78716086933955    5.70382777372712    5.10420254825912
C         0.52364364768357    5.36765253680261    4.69468044476972
C         1.37593202745101    2.04842904601369    4.35697979750963
C         0.27841812851653    1.35093060061893    3.80100910885446
C        -0.39509617709862    0.68707434141882    4.85164456902027
C         0.31040913301460    0.94334311520631    6.04603118873515
C         1.39191825732011    1.79101986835968    5.74782656019705
H        -2.29707915957082    1.44819307680838    0.47089760023202
H        -3.96615961595293   -0.24456335492569    1.14182673034598
H        -4.88773068491642   -0.25167960944594    3.41830880831820
H        -4.17312234396503    1.45703745845417    5.07776328143123
H        -3.97300862399800    4.42311686219776    2.57753264917356
H        -5.19119731220730    6.50991120415604    2.13874651973813
H        -3.99819261178698    8.49248848443778    1.28658841219439
H        -1.56788671682219    8.38042926503176    0.86796605551629
H        -0.34072508016271    6.28659452566442    1.30201133742215
H        -2.23079070374498    4.00081370857658   -0.39867877274905
H        -1.31894804981193    3.59500667150811   -2.65226862763200
H         1.01310932372733    2.84243999381001   -2.92606254691033
H         2.43687929860513    2.49503756425578   -0.94182823224944
H         1.52276237662485    2.90009266921906    1.31425655794033
H         2.26143500953877    4.60618768605033    5.84987738107155
H         0.53878620243731    4.49790979300654    7.91148394569294
H        -1.78768700353275    5.53857440509903    7.08528482309142
H        -1.52328761053026    6.23668674381990    4.51519070742636
H         0.97669453665090    5.63289082189573    3.74697979426506
H         2.15567120266083    2.55236687643953    3.79760687758322
H         0.09242285695109    1.19704659892948    2.74395544347299
H        -1.22460392626663   -0.00247414043791    4.74026247545992
H         0.09881764510542    0.50121211163925    7.01047728919763
H         2.17919496218760    2.06534267981693    6.43933353719914

