51
CSD_code = YUWHUU | q = 0 | S = 0 | Stoichiometry = C25H21AuClO2P | MND = 2
Cl        9.17844642783092   -1.06882732210666    1.69587412893511
Au        9.37330966149817   -0.11721875164281    3.73624550946386
P         9.59545169487589    0.89299651820963    5.74436978269052
C         9.87451102076522    0.20484658350635    7.31304543460079
C        10.05863786878869    0.99996935833595    8.43272518831219
H        10.25238519734556    0.49717035654505    9.37157897736947
C        10.07670637765042    2.39409264748593    8.42979604818978
C         9.88098300073537    3.13967212601748    7.26886529980144
H         9.87097784709551    4.21806453474202    7.36121800318366
C         9.63873532544604    2.60752091949898    6.01214525828620
C         9.42513845274551    3.45884029780782    4.83954672209442
C        10.21412511780161    4.59497959468174    4.63042051531296
H        10.98263752990555    4.83178355834876    5.34895879343783
C        10.04835676088427    5.37543220006467    3.50345728416044
C         9.06243005177610    5.02432278003060    2.54764140769998
C         8.26898228699898    3.91173161211929    2.77461969333835
H         7.50388057668005    3.63075225036444    2.06982161800134
C         8.45097271779229    3.13553072614460    3.90745143241926
H         7.80111649487091    2.28835854827112    4.08055058337858
O        10.77317663552189    6.48582494014909    3.20758746591123
C        11.77664916698337    6.89171102771082    4.10389454900661
H        12.55292451985825    6.12716306609552    4.21511258368886
H        11.36332197988496    7.13706903138671    5.08824682418601
H        12.21523492439946    7.78675126494904    3.66600317472061
O         8.98288634293407    5.83668829072421    1.46732207056194
C         8.08269093756665    5.49827481415944    0.43890911788960
H         7.04448788820966    5.53388262836576    0.78478272083442
H         8.29617300556500    4.50634909649657    0.02898123143880
H         8.22913367548005    6.24887026377289   -0.33590414619303
C         9.89715467159589   -1.26032415047788    7.40818115680277
C        10.56647402664884   -2.01221391991781    6.44534737639296
H        11.09729190963376   -1.50328675032738    5.65050763638780
C        10.58286284822302   -3.39219034423103    6.51748291599213
H        11.10581891231745   -3.96147674474619    5.76417886366859
C         9.92788283410247   -4.03960888122693    7.55195130197179
H         9.93529785363799   -5.11769534154594    7.60641870592941
C         9.26187647860321   -3.30071380274212    8.51631533183352
H         8.74792719625314   -3.80289196287439    9.32259823696214
C         9.24641917108973   -1.92030358679253    8.44857767118551
H         8.70709337538895   -1.34868960768544    9.18999848272902
C        10.31241715197104    3.10342208477759    9.69819978016268
C         9.68268912058635    2.69109200617340   10.87048991376583
H         8.99682328303151    1.85685624352749   10.84295633453997
C         9.90287110883426    3.36082938453244   12.05949963703768
H         9.40163278619791    3.03530634717366   12.95905429919656
C        10.76171446873303    4.44653966375622   12.09881681968241
H        10.93581623328913    4.96677141689386   13.02865964512639
C        11.39662497526171    4.86198096188207   10.94027708339877
H        12.07157393556215    5.70479114150627   10.96618327346814
C        11.17110433105401    4.19939831777458    9.74832867179123
H        11.68496984009868    4.51610456234189    8.85220958925320

