68
CSD_code = YUWHON | q = 0 | S = 0 | Stoichiometry = C23H38ClO4PRu | MND = 8
Ru        1.81218561101620    4.87199203230853    2.14264631726911
Cl        0.38150945583248    5.92102531635043    0.58345327670630
P         2.12094204232950    3.37693560779842    0.37369567146991
O         1.73903951790309    1.80400669537053    4.86783960294494
O        -0.38838641303965    1.13800957440017    5.18110086466505
O         0.91744749420037    0.56287165753824   -1.20410408819689
O        -0.15792107391601    2.23978198022586   -2.22941779344308
C         0.68416084192687    3.63415469816373    2.89098381547319
C        -0.03366283708176    2.84100964164582    3.65389842200320
C         0.56006488993594    1.90168829555005    4.59921706749119
C         0.07678616869407    0.19349736821550    6.12885377697035
C         1.85335612613633    6.71944786582497    3.35962695101245
C         2.27144388629022    5.63972857280136    4.17887898524390
C         3.47132454339736    5.09196601582395    3.60409459456538
C         3.86920313639829    5.95848160515418    2.51055813006605
C         2.87049550497547    6.93242783212068    2.34878202082280
C         0.74026769567985    7.68213734786660    3.63468956465025
C         1.70212356796273    5.23537113618584    5.50346738824954
C         4.35029934869032    4.11370705240124    4.32649046885777
C         5.23892798229308    5.98087154085640    1.89959384321144
C         2.89287991945843    8.13724581583088    1.45913114933087
C         0.46830188581139    2.60280406734599   -0.00516024415826
C         0.45674171748306    1.67665903790832   -1.18189519324900
C        -0.25523651485279    1.45854858126360   -3.41158648794904
C         3.21074766346241    1.88520859558299    0.57343221544651
C         2.69936905163658    1.03119233958880    1.72656437321703
C         4.63449303629123    2.34710881912916    0.85491975321389
C         2.52177509911847    4.10428634091460   -1.30671484950733
C         3.12796356387283    3.13014975645623   -2.31239483314512
C         3.40493175271346    5.33913041430160   -1.15865649630094
H        -1.11641907807628    2.83918053617097    3.62505230184240
H         0.78901110406384   -0.49250702039155    5.66464512936583
H         0.57083377329480    0.69984063286025    6.96153655170243
H        -0.80053622426323   -0.34528900499890    6.47779153737297
H         0.01458641284393    7.25256899215189    4.32209943231795
H         1.14189753204067    8.59619590003345    4.07831094915749
H         0.22548579038869    7.94920760909188    2.71209670672419
H         1.86259431195824    4.17498673341464    5.68099480437237
H         2.20324231523430    5.79775194601733    6.29469473638661
H         0.63529106548419    5.44067443187887    5.55827328052721
H         5.21006021520313    3.82461659108353    3.72689181596637
H         4.71858861197996    4.57336053339184    5.24627108657672
H         3.79000135853634    3.21913276119587    4.59623973668859
H         5.25458307739231    6.55542042185663    0.97659168496857
H         5.92769752401463    6.45278596578456    2.60479267569518
H         5.61048645268440    4.98073518515249    1.68951750653328
H         1.97319491807855    8.20578454643472    0.87614532651324
H         2.96963412418603    9.03800190224705    2.07130732480763
H         3.73660120594511    8.11457175959325    0.77263969631955
H         0.18224535814897    2.05737832229878    0.89725806214983
H        -0.22507316474763    3.43289558495191   -0.17059527437844
H        -0.97866160613327    1.95867090377426   -4.05010758243150
H         0.71456810975489    1.40278112356338   -3.91138474395156
H        -0.58625450605547    0.44648754011889   -3.17058057605418
H         3.17149029627026    1.30287431752536   -0.35141105702520
H         1.78208839135790    0.51792110832692    1.45110605337610
H         3.44060768721066    0.27723581398666    1.98482700517553
H         2.51826569116133    1.64991861125163    2.60691782704018
H         4.64099588194961    2.89731081350729    1.79322368225359
H         5.30070337987005    1.49140494193465    0.95127004101924
H         5.01485127903427    2.98902183441270    0.06270005562666
H         1.53974552579165    4.43562923748766   -1.67114439487655
H         3.13301220944218    3.59478830572751   -3.29773048700179
H         4.15532837487613    2.88360312446824   -2.05398412329093
H         2.56340270640136    2.20525842865743   -2.37936448614874
H         3.50662557723199    5.84545122337405   -2.11728059802415
H         4.39872731465861    5.07123559539871   -0.80573002137475
H         2.94702233818360    6.03266714133125   -0.45596993285141

