61
CSD_code = YUWNEK | q = 0 | S = 0 | Stoichiometry = C26H26N2O2P2PtS2 | MND = 4
Pt       -5.01794454011609   -5.92836198423964   -2.65863791972708
N        -4.24739178995741   -5.85223329736519   -4.46375458707222
S        -2.71200335375878   -5.48307974346112   -4.60072199606867
N        -2.07576632084283   -5.33121949361007   -3.18559390585052
S        -2.87488546068248   -5.49402372225344   -1.76690660263866
P        -6.17373625885387   -6.03530932445565   -4.62267154180270
O        -7.78829037346250   -6.30149263446954   -4.19654981118122
C        -8.91747875599124   -6.29428657770138   -5.04223668718394
H        -9.17495332623070   -5.27296365523494   -5.33719061391668
H        -9.74331994308942   -6.72553797457883   -4.47371751513035
H        -8.75115768371256   -6.89128058030734   -5.94316671526253
C        -5.99845410339965   -7.26460770185388   -5.94943354764334
C        -5.20042718450365   -7.00181436977241   -7.05649665357083
H        -4.71510552885649   -6.03988030525300   -7.14236419270065
C        -5.02580823123546   -7.97066388835777   -8.02643228873967
H        -4.41062093784249   -7.76293571695695   -8.88998464768524
C        -5.63249695917535   -9.20995031219532   -7.88956373209979
H        -5.49077963267520   -9.96634967496625   -8.64757863996525
C        -6.41176244037716   -9.48141252890023   -6.77694190773846
H        -6.87502843767183  -10.45122271754119   -6.66461062830154
C        -6.59425550583421   -8.51194982133340   -5.80676446677381
H        -7.19465404149109   -8.71257718294119   -4.92974134346405
C        -6.34421732737196   -4.40249704112085   -5.41180253444985
C        -5.94886282096634   -3.30065066693179   -4.66409341514125
H        -5.52368194444412   -3.46353500204557   -3.67385504671645
C        -6.07958478662314   -2.02436268251608   -5.17655982523486
H        -5.76537227436006   -1.17070602021445   -4.59414323325645
C        -6.61331965953473   -1.84474072187575   -6.44343468837422
H        -6.71288337585993   -0.84936505965085   -6.85075022200309
C        -7.01849202283288   -2.93981758420840   -7.18832996347809
H        -7.43652997568696   -2.79755987601318   -8.17454676827204
C        -6.88898755046704   -4.21942054337645   -6.67482201345696
H        -7.20284882003134   -5.07457838936454   -7.25797077585643
P        -6.25372734410800   -6.22967694515703   -0.80025865852926
O        -7.40403354237833   -5.17323034012240   -0.38999645915363
C        -8.21313061273201   -4.58611729801411   -1.39806853340945
H        -7.63714450141794   -4.42864734183645   -2.31645080171829
H        -8.56600681447302   -3.63054028572790   -1.00960137667160
H        -9.06356266879749   -5.23061192889789   -1.62841274908618
C        -7.12708972600006   -7.82816831945070   -0.94569509079295
C        -6.68989493444663   -8.73108596225495   -1.90487012792894
H        -5.85205313058138   -8.45205591375749   -2.54224161687501
C        -7.32223728183216   -9.95214163738369   -2.04709933874336
H        -6.98189638656278  -10.65707807765642   -2.79203051626417
C        -8.39838034959710  -10.26873089387296   -1.23270027716914
H        -8.89854152725069  -11.21954730131614   -1.34617042140261
C        -8.83646228944501   -9.36902317463499   -0.27359775061833
H        -9.67532229592869   -9.62129689987797    0.35896426729390
C        -8.19902276186236   -8.15038445234154   -0.12420937805738
H        -8.52712529366471   -7.44119701264434    0.62307436981654
C        -5.46280210828314   -6.41287676097127    0.81925195664004
C        -4.42667309892354   -7.33792058846496    0.89192704958335
H        -4.15552181255509   -7.89327105757918    0.00241915287814
C        -3.74919582546570   -7.52784416878538    2.08009096161892
H        -2.94209569815045   -8.24317236824378    2.13546093356460
C        -4.10293148653755   -6.79026766537012    3.19986612916290
H        -3.57084076577064   -6.93299489098718    4.12892113636475
C        -5.13131237724779   -5.86583146509310    3.12743314767944
H        -5.40011887984857   -5.28863239866281    4.00044125202048
C        -5.81341685521617   -5.67221455395269    1.93838652075533
H        -6.61015826302164   -4.94785350216228    1.87123464976153

