49
CSD_code = YUWNOU | q = 0 | S = 0 | Stoichiometry = C16H22N2O4P2PtSSe | MND = 4
Pt        5.00417575149681    2.96782834771536    2.81903670823020
Se        5.53427711190253    4.60516971558323    1.22744070548770
S         2.95836150583174    5.23052232749915    2.38244223795850
P         6.96867926287282    1.86119630017974    2.49145080043178
P         4.29847838184585    1.38096152432629    4.31346777404093
O         7.67167967689658    2.44439627238948    1.15500738485751
O         8.07422257583549    2.07681523550659    3.65028393672101
O         3.37863593480790    1.75139390565810    5.57700797105896
O         5.61586774685978    0.67362831644410    4.95327026783982
N         3.31883865436816    3.94643801330348    3.16077428317397
N         4.05754230517912    5.67076943805135    1.35431128134642
C         8.96289163019474    2.01824264662304    0.74668113332110
C         8.04277242242337    3.26701949360307    4.42323795472180
C         7.14479832146386    0.06303817509292    2.29030551904035
C         7.82058625065086   -0.75604527611467    3.18163208759658
C         7.83360070758306   -2.12534547881977    2.97700399996648
C         7.17255699220073   -2.67562851788257    1.89012670278020
C         6.49277142850216   -1.85745367639680    1.00080890271297
C         6.47343250602119   -0.49038857465885    1.20612309095595
C         3.45603949772436    3.03472188800959    6.19333616013658
C         5.52015144354153   -0.29237146376157    5.99449945630331
C         3.27416584849323    0.01436841187982    3.69673309933068
C         3.83647068687975   -1.19588498810673    3.31043288373339
C         3.04386512615499   -2.17250261258740    2.73454573264166
C         1.69422365454298   -1.93835706198839    2.52782343709847
C         1.13616057478763   -0.72244862152313    2.89170466219824
C         1.92447905680916    0.25649244543313    3.46707392455266
H         9.64086150752462    1.94887999698791    1.60042764964930
H         9.32885719979091    2.76642183170889    0.04484651864583
H         8.90839838291055    1.04530385279184    0.25302862933269
H         8.73680447034872    4.00393171621824    4.01404958704849
H         8.33504428420491    3.00749293137475    5.44093339510221
H         7.02719034157194    3.69909765232324    4.42912675467339
H         8.32670107084502   -0.31572780731649    4.02629389973654
H         8.35958851071707   -2.76786593044831    3.66878194613406
H         7.18466416929202   -3.74494156554212    1.73788924490606
H         5.97393709465114   -2.28641073731286    0.15645465687736
H         5.93587929438357    0.16545989883170    0.53255926282111
H         4.34545473643669    3.11053575192648    6.82231433119639
H         2.56120624181040    3.13626641605476    6.80572757857619
H         3.47314311093017    3.81385839284532    5.42542940463105
H         5.94905835629069    0.12731475018231    6.90601133354295
H         6.09177827786632   -1.17311830613818    5.69827358488511
H         4.48240727878486   -0.57336899094550    6.18054054894255
H         4.89183690580637   -1.37110802426279    3.45913893194574
H         3.48331867202782   -3.11507851792480    2.44211045612636
H         1.07809992114862   -2.70100371237685    2.07476205424689
H         0.08665950658977   -0.53649760952132    2.71785995359917
H         1.51078561006077    1.21558182539869    3.74027817914187

