63
CSD_code = YUWTEP | q = 0 | S = 0 | Stoichiometry = C27H29Cl3NP2Re | MND = 6
Re       18.07557445641813    8.91934421549364   12.73207830005736
Cl       18.07143489363777    8.93944493622595   10.31095094420468
Cl       18.09116901759060    8.91640403663189   15.15604277970670
Cl       16.59800745267583    7.29716974109393   12.72743895619771
P        19.70725366182707    7.12393200497793   12.74559240447281
P        16.32004689010445   10.64651650938051   12.72249175797716
N        19.30459250720727   10.17165822997078   12.73749206693277
C        19.64338005457646    6.05131528437080   11.27750150838053
C        21.44886247566097    7.65859838465460   12.82787559474012
C        19.53925775998852    5.97784810364449   14.14869331011902
C        17.16649927176480   12.24943029541365   12.75437059374602
C        17.64662575938866   12.78827981883289   11.56337275731433
C        18.41506151906112   13.93712071443782   11.58671219069883
C        18.72458024928926   14.54185000943653   12.79423395175063
C        18.27568620536929   13.98899080063479   13.98235929947274
C        17.50470899063867   12.84096631297441   13.96766592672303
C        15.12851490202590   10.70885778086061   14.09547527106327
C        14.46450777620380   11.89802062348710   14.38652381847856
C        13.52219661717330   11.93180995021045   15.39611687540665
C        13.23038417686285   10.78362192976076   16.11630650540809
C        13.88202728654505    9.59860292817799   15.82293740345924
C        14.82679041570426    9.55787482532055   14.81266594671377
C        15.19024940125915   10.73471262288118   11.29949741697790
C        14.82027363089307    9.56282527315881   10.64991541536182
C        13.92126369043871    9.60499928347421    9.59971519400811
C        13.38004648496517   10.81418121135422    9.19870391966314
C        13.73880551394664   11.98341806720373    9.85047332950223
C        14.63873037819822   11.94838124525236   10.89873711631147
C        20.23138331680261   11.12035035346221   12.73781758220729
C        20.68534575657717   11.67396283310324   13.95169564184566
C        20.76231809151335   11.59726954184736   11.52221931462288
C        21.63016316447499   12.67525663627862   13.93705746112731
C        22.14156386579492   13.14305682218520   12.73412956679626
C        21.70649416382411   12.59895891402031   11.53307114247814
H        18.65998531434591    5.58603236654582   11.21809853741185
H        20.41484975350617    5.28454096547934   11.34034385064922
H        19.78707929590309    6.66694509392686   10.39040996047940
H        21.59240070006915    8.24044411822673   13.73703185804593
H        21.66473640200298    8.29011048149954   11.96761307942469
H        22.10896018157611    6.79215034505130   12.83064198307112
H        19.61026602013298    6.54903804908932   15.07371152313305
H        20.32152111003681    5.22062812792579   14.10628421630457
H        18.55969068097599    5.50264367518274   14.10916644784192
H        17.42328619256654   12.29409290753410   10.62781886352942
H        18.78128874757698   14.35745197432915   10.66178211535401
H        19.32720201836444   15.43784685145803   12.80977448206662
H        18.53383604180699   14.44989629745614   14.92433800191701
H        17.17075494238960   12.39203773554879   14.89265181250007
H        14.69486566162650   12.79605654764946   13.83078469794957
H        13.01398703374773   12.85759123521861   15.62420975982259
H        12.49536803597724   10.81614075258827   16.90715862268057
H        13.65860727750143    8.70309781391150   16.38345657018741
H        15.34137658109677    8.63348842548604   14.59652385186814
H        15.24836537973656    8.61847587792015   10.95253495030344
H        13.64714475132440    8.69247746495947    9.09156163875193
H        12.68027346452169   10.84821963224804    8.37659200538923
H        13.31747912300352   12.92813898858342    9.53836534191977
H        14.92331914130376   12.86486351976309   11.39613662641832
H        20.26794797036547   11.29290376299568   14.87089753452942
H        20.40102169931835   11.15917321680713   10.60453984353791
H        21.97383839104123   13.09955324878999   14.86884857716761
H        22.88013662519509   13.93055425441479   12.73259351446998
H        22.10911166459046   12.96447602919952   10.59989846934214

