40
CSD_code = YUWXAP | q = 0 | S = 0 | Stoichiometry = C13H18AuCl3N3OP | MND = 2
Au        3.52624195812421   12.41968035205920    2.24420234228452
P         4.79529265140468   10.68408835253254    2.86074526769923
Cl        2.25325991753787   14.16759930774253    1.61294362212919
Cl        4.32150497248930    7.03947352243348    3.91269641968164
Cl        1.01947736952448    8.44920157802202    0.34215750080733
O         8.53159194914409   11.20326084524838    3.65538671008284
N         4.61120769880440   10.21557443720036    4.46250272047546
N         6.44695981811774   10.98082982384410    2.82825708066215
N         4.64807762033004    9.36443942584727    1.82760865940284
C         7.40136563205550   10.79973147945860    3.82095047322807
C         6.97262990286676   10.03777287430884    4.99841651629879
C         7.97932739440832    9.60013682016076    5.86120441869878
H         8.99741116359208    9.85143558695541    5.60529247480047
C         7.68059937792378    8.87670071905270    6.99418218744718
H         8.46633158121154    8.54142153221564    7.65225833551720
C         6.35394856175109    8.58555049023688    7.27632374112342
H         6.10013605386639    8.01512111256385    8.15702449239757
C         5.34345286266107    9.01677499668987    6.43976808435744
H         4.32481721930921    8.76336355022382    6.68096165731437
C         5.63116224587480    9.74999955209599    5.28710565304463
C         3.24231923049358   10.20061415984517    4.94924838228206
H         2.63775869753393   10.81954133648193    4.28133718274847
H         3.19604931810421   10.62912817114362    5.95127336481029
H         2.82320412658733    9.19172021182488    4.96390835535051
C         6.86765919432164   11.68745295747895    1.62291377089100
H         6.71823052572145   12.76389190976016    1.72696200119177
H         6.28913507098723   11.32362396757186    0.77233907329210
H         7.92861713217463   11.49680243556360    1.46186668424046
C         5.59220100062848    8.26491740345311    1.84387735506494
H         6.40051128654744    8.53256737999823    2.53098326869593
H         6.02229063256386    8.13194011390718    0.84187903498215
C         5.00234203598722    6.92600801901988    2.27178849245222
H         5.78341631517367    6.16637549104115    2.29996929037584
H         4.20026167013687    6.60463714944764    1.60855038142809
C         3.53420761320405    9.29495354887642    0.89970391342455
H         3.78952661938193    8.60233566215834    0.09399893421177
H         3.36992077515673   10.28518252702005    0.45947644983501
C         2.23857358876586    8.84997727679569    1.57768077708589
H         1.83079507509774    9.65676491500904    2.18853954061786
H         2.38368414044614    7.96390900471702    2.19351538957146

