85
CSD_code = YUXBID | q = 1 | S = 0 | Stoichiometry = C24H48CuN12(1+) | MND = 4
Cu       -0.39209188298927    1.78251729150164    5.69577067305412
N         1.57878345532757    2.48391768704159    5.83686756314065
N         3.40501335018890    2.67218031041017    7.41059773992289
N         1.42940617754121    3.63833739572311    7.84087393996011
N         0.21061613285746    1.08108955396881    3.81415911134168
N        -1.70636954566317   -0.07099424240659    3.20689874289648
N        -0.57231192449084    0.89655794738539    1.53370710199904
C         2.12061887992899    2.86007343398776    6.93910458844052
C         4.21341840065688    1.49108042196658    7.21580222738561
H         3.76893859979927    0.61179968833064    7.69510416675579
H         5.18741033155346    1.67913785432643    7.66719585642740
H         4.36524390291609    1.28285794205456    6.16243994109687
C         3.53304937227593    3.27375885190809    8.72841542139656
H         4.49902727802402    3.77410113470346    8.82500727173468
H         3.45700947178363    2.50572839991500    9.51118235106826
C         2.35550571584580    4.23693049494325    8.78150354745822
H         1.90798412327577    4.31231399324403    9.77555853566347
H         2.64855976664162    5.24528814072639    8.45622307649529
C         0.29259999584526    4.42418035430945    7.43841361174780
H         0.58689425263849    5.28362873226536    6.82514996152315
H        -0.21261119916074    4.78727216590818    8.33311474980827
H        -0.38249258345862    3.78909137536313    6.86436735381760
C         2.30585095991959    1.79898322181285    4.79637374408072
H         2.53585357825249    0.76472428893106    5.07553729239614
H         3.23949000466477    2.32518718347854    4.56259912377424
C         1.44744299094162    1.76524544868395    3.52682645480646
H         1.27486177533503    2.79949744974769    3.20892020715014
H         2.01182206503603    1.23836388555840    2.74765264231844
C        -0.61170122426624    0.70680840340563    2.90107887786204
C        -1.75480673205254   -0.85916939154508    4.41037427363343
H        -1.07680262885476   -1.71906345551331    4.36275976020835
H        -2.77336432503819   -1.22170702423405    4.54706471150204
H        -1.47163007839488   -0.22589136429073    5.25143365160537
C        -2.23614731752532   -0.66727787188968    1.99670200302527
H        -3.32529272071171   -0.74267715584689    2.04313367238458
H        -1.82535662016511   -1.67535977415581    1.84335245676076
C        -1.74960292191468    0.29794053391429    0.92495966467182
H        -1.48209887920722   -0.20031626877290   -0.00935191120484
H        -2.50398378547832    1.06743837027247    0.70773142180121
C        -0.08930436018909    2.07788065940439    0.85718836403616
H        -0.69698862191106    2.95814583995945    1.09436076818346
H        -0.14848300741607    1.89210414907310   -0.21508461135082
H         0.94596942755056    2.28303591409228    1.10647155643978
N        -2.36297078228922    2.48391256170114    5.55469448174502
N        -4.18923477057203    2.67214542577037    3.98100021185570
N        -2.21362857629791    3.63827208608119    3.55065030296361
N        -0.99477865552891    1.08108698911454    7.57738766957580
N         0.92218593363107   -0.07105411675937    8.18460479103848
N        -0.21180794324959    0.89652875641614    9.85782242634870
C        -2.90482746048785    2.86004083690364    4.45245819556679
C        -4.99764748417018    1.49105939889956    4.17584834267138
H        -4.55318712355321    0.61175962898949    3.69656292388988
H        -5.97164690088588    1.67911299594058    3.72446923000082
H        -5.14945392212283    1.28287028467342    5.22922000005219
C        -4.31729423607784    3.27368299098046    2.66316590788699
H        -5.28326973388026    3.77403106120626    2.56657974245835
H        -4.24127882825760    2.50562625885362    1.88042261736973
C        -3.13974296802098    4.23684190657233    2.61002045025610
H        -2.69224187124437    4.31218752483030    1.61595344646259
H        -3.43278091642981    5.24521303905960    2.93527368426218
C        -1.07680825008513    4.42411951410976    3.95306153933392
H        -1.37108296384971    5.28358861387422    4.56630542495765
H        -0.57161398212791    4.78718108074184    3.05833855568992
H        -0.40170706942302    3.78904337745934    4.52711198572821
C        -3.09002249023754    1.79900944015299    6.59522037059047
H        -3.32005157138386    0.76474962644181    6.31608117492711
H        -4.02364563341352    2.32523487668085    6.82900981633153
C        -2.23158249336037    1.76527296099651    7.86474597935711
H        -2.05897011620535    2.79952476102599    8.18263527653433
H        -2.79595299650702    1.23841312724928    8.64394077733992
C        -0.17245317679426    0.70678012479437    8.49044958294506
C         0.97057183679841   -0.85922832401851    6.98112632733045
H         0.29254245764940   -1.71910168374354    7.02875484187655
H         1.98911542190628   -1.22179646216025    6.84441243631861
H         0.68739519031543   -0.22593997673367    6.14007478602042
C         1.45196827477796   -0.66735859653397    9.39478944838721
H         2.54111031627969   -0.74279415369920    9.34833598176863
H         1.04114753696572   -1.67542735426603    9.54814458672306
C         0.96547717109498    0.29787337417559   10.46654389000792
H         0.69797778969527   -0.20037638786214   11.40086048675904
H         1.71988736395170    1.06734682867196   10.68375725514110
C        -0.69476390791999    2.07786739138467   10.53435024003206
H        -0.08705706642002    2.95811284335012   10.29716321516385
H        -0.63556886891988    1.89209010512331   11.60662212860403
H        -1.73003618326674    2.28305529388971   10.28508781050921

