30
CSD_code = YUXHUU | q = 0 | S = 0 | Stoichiometry = C8H16NO4V | MND = 5
V         8.75861114612974    2.91432111543788    5.43147673156319
O         8.92589715149180    3.96855390398339    6.52806798088894
O         8.98525924404659    3.73430664202294    4.01269031849124
O         9.93489316172029    1.79398386693052    5.71334740430423
O         7.21950649570859    2.34783422870130    5.61135291511144
N         8.47013681468299    1.17102199473847    3.65201163024794
C         9.16223859144179    3.30329187768619    2.72336705637438
C         8.33844956250173    2.01514375152987    2.48374504222138
C        10.20973963203820    0.54410664015033    5.22472963147892
C         9.70681169862157    0.42809108101163    3.76204824183448
C         6.41222449888090    1.52811536948850    4.86518766546003
C         7.27904596810856    0.47974385835673    4.12203738979710
C         6.51430086767988   -0.28296101699663    3.02821399070281
C         5.51043702470013   -1.27436556471422    3.60608281273224
H        10.23615033548637    3.10469588911678    2.55929105083358
H         8.84856727649126    4.08585199336935    2.01198477233988
H         8.66539726936761    1.52083631222631    1.55506624696801
H         7.29076473118356    2.30532357233240    2.37915389489651
H         9.70379987358901   -0.20417858507657    5.85988357254343
H        11.29392608309214    0.34631220034276    5.26726891731687
H         9.59434118508305   -0.63123973811537    3.48306605160927
H        10.44964930294594    0.88425117855634    3.10271026511176
H         5.68398384001165    1.02260386929596    5.51987658266313
H         5.85015874768224    2.14124422515434    4.13887448159399
H         7.61636002860465   -0.24156618707039    4.87726776907096
H         5.98987439424479    0.41650587165803    2.37449299963317
H         7.24038182010304   -0.82728074523016    2.41801737590754
H         4.74029765196887   -0.75999365948648    4.17424154268381
H         5.02842196004561   -1.82851624698791    2.80429599415962
H         6.00587364234744   -1.98603769841216    4.26244967146011

