105
CSD_code = YUXNIQ | q = 0 | S = 0 | Stoichiometry = C38H60MoN2O4 | MND = 6
Mo        1.38055157347020    9.00893026782342   25.94532935297810
O         1.53364653759225    7.95935187252329   24.68071468933611
O         0.82438004248663   10.41410243870733   25.27817755567917
O         1.25807117054887    9.87668313888846   27.77046459422170
C         0.34159746965704   10.69025914434553   28.16789243956164
C         0.58537323121489   11.72927870150484   29.12305135937151
C        -0.43175611493622   12.60189220698044   29.42326317914520
H        -0.23399002080019   13.40309705365752   30.11477617369569
C        -1.72874817622242   12.51731222186683   28.88759280036625
C        -1.99274685518588   11.46102988708396   28.05720093232206
H        -2.97898205264103   11.30887859419181   27.64710071102144
C        -0.99233055417414   10.53765177594894   27.69132449042512
C        -1.40057871137141    9.41999973159529   26.91236215044325
H        -2.48241991556123    9.37757318706350   26.76706382723702
N        -0.67799455580373    8.46721008806567   26.42500006928394
C        -1.37796116963526    7.39630254673727   25.69483718234431
C        -1.52029369324750    7.86243561920292   24.24055974760660
H        -0.52636581803601    8.05857994120268   23.83527772508963
H        -2.10176381724656    8.78176505865673   24.19084707064457
H        -2.01099569405945    7.09655878872561   23.64514661007025
C        -0.52679257024288    6.12780367649056   25.75373057363131
H        -0.49108650785945    5.74290504682659   26.76929618445147
H         0.48160342235196    6.35390131310457   25.41062618799061
H        -0.95309116000177    5.36604801253234   25.10501496099382
C        -2.76044759064740    7.06240601779818   26.28540407140335
H        -2.71073355943848    7.00693666570195   27.37161241753026
H        -3.07446341002096    6.09270233070972   25.90753369555310
H        -3.52370833402002    7.78233928942464   25.99946813361881
O         2.15451284875142    7.68178118238704   27.16127915013141
C         3.00876620963370    7.77074922049885   28.12228879522701
C         2.94663500379625    6.96442947282238   29.30232913578024
C         3.91708016185290    7.12172306063402   30.26251021659425
H         3.85847800271242    6.52141163343259   31.15423143227749
C         4.99325692283625    8.01913269704436   30.15702167950980
C         5.07018653912471    8.77414318599201   29.01569987680849
H         5.87433427914239    9.47761866174097   28.86525023745270
C         4.09866305801014    8.67874583124569   28.00140436882530
C         4.28394911531921    9.47760109427065   26.83520728328890
H         5.25322381556960    9.98054330477517   26.81556676100477
N         3.47689242294243    9.64363934679149   25.84452415883326
C         3.92160326448801   10.47356303585773   24.71170515626619
C         3.42686700754171   11.90301003826429   24.96045501749643
H         3.92126533698334   12.34085480203077   25.82559196049888
H         2.35084688572014   11.87362384534934   25.13609648194392
H         3.62583447798847   12.52203265123987   24.08968459653263
C         5.44795581852613   10.47280881144766   24.51508715282438
H         5.96654886401026   11.07716100440166   25.25623697204161
H         5.67174176336083   10.89936411327855   23.54112966421540
H         5.83788210521145    9.45710960734537   24.53968811290697
C         3.28211630803929    9.92959674464962   23.43105225117971
H         2.19962740084959   10.02702751738433   23.48808128853253
H         3.52278013822126    8.87447002150193   23.31069200213253
H         3.64820345812287   10.48218692715198   22.56866869945831
C         1.95427563517795   11.84758900780659   29.78233083339260
C         2.03519327843333   12.97713512059530   30.81567929971388
H         3.02908779916854   12.97888208514608   31.25926810065139
H         1.31278498983250   12.83398131083609   31.61601816224786
H         1.87498095904364   13.94964109830059   30.35572087609961
C         2.26015788206933   10.52998142478512   30.50746962239122
H         3.25603442406243   10.56122408052141   30.94467769456279
H         2.21894697695355    9.69115970415315   29.82004290642040
H         1.53596491209469   10.36399499870723   31.30343652992571
C         3.00875463985284   12.11957550609314   28.70372543404639
H         4.00462894575940   12.13782609809949   29.14392397374788
H         2.81651332836086   13.08022438274564   28.22870219489859
H         2.97397991166715   11.34374103767565   27.94489252374685
C        -2.75660039423577   13.57108083173328   29.26953831271080
C        -4.10875777605901   13.33852258002715   28.59026244108874
H        -4.79979115147228   14.12962160974006   28.87513740614969
H        -4.54160354365218   12.38887228008556   28.89625812051120
H        -4.00722108540406   13.35343138306227   27.50788830384996
C        -2.97302380545311   13.54600256665326   30.78904029210137
H        -2.05606273944514   13.77478701598849   31.32484025999223
H        -3.31482394108393   12.56210460075219   31.10319355474144
H        -3.72413523853856   14.28013629324672   31.07300148818164
C        -2.23812912336204   14.95060334706262   28.83965744438274
H        -1.30924648436398   15.20046305760177   29.34437164767297
H        -2.97143755690007   15.71862697044351   29.07722508652047
H        -2.05725982547193   14.96380087149029   27.76738608228050
C         1.80634345205724    5.96859631267751   29.46846332597795
C         1.87160751747337    5.18978747798091   30.78749767342093
H         1.79920075373887    5.85489389937357   31.64540695650137
H         2.78807803258024    4.60834953636755   30.85900866376041
H         1.03364864033092    4.49652723106426   30.83121898618490
C         0.47273799983283    6.73024971594689   29.44377482708300
H         0.36726688836514    7.30678118938557   28.52603030023833
H         0.42180157845508    7.41739699818188   30.28766869632332
H        -0.36052833444877    6.03255301089347   29.51728191171211
C         1.88027315914351    4.95291367909874   28.31976860321692
H         1.86441805156079    5.45736759266582   27.35823435313942
H         1.04123433785661    4.26108802902717   28.36967071476726
H         2.80313290991661    4.37981197019326   28.39254493592749
C         6.00781622154113    8.09218451779654   31.28777298032260
C         7.09455873575588    9.13926290914383   31.02927760349966
H         7.78452584169243    9.16220071734168   31.87050449185240
H         6.66264160954806   10.13165506302236   30.92201222956983
H         7.66432759942250    8.89905637055432   30.13491408659245
C         5.29223655906807    8.46174665513071   32.59440344032173
H         6.01026931068245    8.52742721407000   33.40923111579415
H         4.54335137403369    7.72216815776209   32.86184477265828
H         4.79672473161953    9.42458790158251   32.49350620791387
C         6.68682955473459    6.72348692631942   31.43795492744142
H         7.43589615148483    6.75986159168342   32.22643688304788
H         7.17683586932658    6.44373124179588   30.50779203624905
H         5.96643606314736    5.95014239812786   31.68883934758865

