102
CSD_code = YUXSUH | q = 0 | S = 0 | Stoichiometry = C48H48N3P2Rh | MND = 5
Rh       -1.52343590643043    8.27397485018929    9.70636960887353
P         1.45591699148256    8.23567864933409    9.65276612355794
P        -2.77150080197415    5.56730306438679   10.11851288477539
N        -0.52013930101362    6.66061020711643    9.92806343852594
N         0.34057362125551    8.89483229890071    8.70172459540543
N        -3.05417997299230    7.04364843709543   10.69684798023120
C         0.82525726301072    6.59902853404956    9.94214617123570
C         1.22528742142254    5.29294413150720   10.23428157918205
H         2.23314254106775    4.93114985245132   10.31482047055287
C         0.05885006029975    4.54768862045679   10.39124059265027
H        -0.01140443958232    3.49893579640815   10.61188573399570
C        -1.00417660663829    5.43589717700014   10.21700820661200
C         3.10737867075018    8.07070325725141    8.92349334984216
C         3.36278135061171    8.48930982397233    7.62483717978419
H         2.58523442359038    8.98377758269521    7.06040977929420
C         4.61136260775721    8.27326705011954    7.06800439535183
H         4.81517494841820    8.60536458471892    6.06064957189330
C         5.59635229592748    7.62942949618029    7.79873200804203
H         6.56977016450217    7.46215795465108    7.36150869239197
C         5.33464609109347    7.19120884823232    9.08802505399044
H         6.10152681588811    6.67939020100537    9.65132951121052
C         4.09117607304735    7.40758975090008    9.65076435944263
H         3.87051206784546    7.06952014502952   10.65441609106108
C         1.67669738900206    9.02417866186266   11.29525407210297
C         0.55842545946235    9.04830745128599   12.12239465329263
H        -0.37231416216835    8.58359829492119   11.77598325041046
C         0.62124786489549    9.66955738528097   13.35515636040924
H        -0.24773078611562    9.68602637370535   13.99639399875332
C         1.80003312568270   10.27164767701057   13.76718963114688
H         1.85147650288215   10.75778475652696   14.73033593133843
C         2.91182362937253   10.25772224432233   12.94085477994969
H         3.82782825198014   10.73498370870658   13.25807378074668
C         2.85416765648208    9.63821084507971   11.70490233006300
H         3.72134870870750    9.63608463338258   11.05775263196354
C        -3.12804725558052    5.23834985384883    8.35388405912921
C        -3.02033866745443    6.31202545311857    7.47682226558908
H        -2.78032286716104    7.30191146027491    7.87997755346392
C        -3.19518779792813    6.11625197378419    6.11994163475428
H        -3.11475587438814    6.95002802619639    5.43808024412067
C        -3.46993950727828    4.84681582526759    5.63518717736302
H        -3.61026899515035    4.69181824317882    4.57539565330006
C        -3.55029893136382    3.77148027261844    6.50569628250821
H        -3.74612134972337    2.78011481035654    6.12310835480894
C        -3.37271274166652    3.96058535226820    7.86467250008162
H        -3.41381931291217    3.12081742573313    8.54444571173932
C        -3.59661030801959    4.30850019258255   11.12587623979494
C        -4.82835976419918    3.74445209161587   10.82016946966194
H        -5.31774597635697    3.97659501716691    9.88515213007061
C        -5.42485987292436    2.87574216198223   11.71685142933038
H        -6.38232757846768    2.43498776775207   11.48034811324131
C        -4.80112177022234    2.57364863178634   12.91628310391781
H        -5.27179831349502    1.89419203930077   13.61147000573792
C        -3.57741190993801    3.14534102793215   13.22803072970747
H        -3.09406421792067    2.91226474313394   14.16547192542029
C        -2.97969589678437    4.01718644406062   12.33813536954982
H        -2.02892664212852    4.48193271490111   12.56401635193134
C         0.51202767863255   10.12578309655604    8.08038988612167
C        -0.23888667907202   10.40085142275291    6.93379582208709
H        -0.91143125400284    9.63877286838020    6.56567198205363
C        -0.11003617859442   11.60639459224420    6.27905266181716
H        -0.70732025353422   11.78905935028549    5.39735358567252
C         0.77676095069732   12.58035684517619    6.72808443662746
C         1.53823646510458   12.29757841163124    7.85398047915079
H         2.24279285241044   13.03199113866492    8.22066777658162
C         1.41168095543773   11.09530869567488    8.52082382667948
H         2.00698775897888   10.89095994931183    9.40350559383855
C         0.91493831180077   13.90510675317500    6.01914073496519
H         1.66914439629987   14.49743841589082    6.55022927758089
C         1.39320280903726   13.71000064351371    4.57878797909144
H         2.33318649228158   13.16211487058444    4.56353061233311
H         1.54592705720712   14.67391334157444    4.09747793244161
H         0.66140254528960   13.15072401182479    4.00134541797164
C        -0.40541891059465   14.67807015879915    6.05134883944692
H        -1.18006452312513   14.14018770130068    5.51039576441914
H        -0.28244473219024   15.65728354165922    5.59298770025579
H        -0.73809424894789   14.81458021403066    7.07825904466596
C        -4.34628786480108    7.46698213318967   10.99530558596578
C        -5.47209111634199    7.01688096048491   10.30742767103598
H        -5.33177996887254    6.32269217975211    9.48611452233492
C        -6.73384358748079    7.46630301137509   10.63676597945428
H        -7.58260360978286    7.09629975411092   10.07953365088224
C        -6.92117518048573    8.38531394338047   11.66192584984615
C        -5.79852941681506    8.83394881226933   12.34820604372311
H        -5.91926331855709    9.54658063269539   13.15286886352342
C        -4.53403570005458    8.38381855863466   12.03076852624687
H        -3.67060394235897    8.72809902295008   12.58110394211461
C        -8.29692339454071    8.88953914658706   12.02303452386313
H        -8.19319697483679    9.58891573938088   12.86055494282077
C        -9.20124659863453    7.74034064782633   12.47358548874209
H        -9.36320217164788    7.03568387510258   11.66156642376162
H       -10.16839634112688    8.12305848088350   12.79341383204543
H        -8.74689554021014    7.20569843504155   13.30515652084348
C        -8.92529374999001    9.64449158544857   10.84943027349859
H        -8.27867715727730   10.46151747615426   10.53661962778783
H        -9.89065008777745   10.05610227639227   11.13712019157099
H        -9.07397306044330    8.98183323560737   10.00033944617043
C        -2.91529736862263    9.76354261383074    9.04789002306848
H        -2.69871218896494   10.09206414261125    8.03568955787907
H        -3.94121115716738    9.44660206366796    9.21693978930802
C        -2.16899242050203   10.26154015270388   10.09985713683386
H        -1.36693023511949   10.97047473441459    9.90910269053946
H        -2.60935380886017   10.32464648791080   11.09150443884514

