42
CSD_code = YUXWEU | q = 0 | S = 0 | Stoichiometry = C12H26AgClN2 | MND = 3
Ag        3.81467304416826    0.53139955657459    6.37546498234822
Cl        3.81481964988955   -1.77980521318179    6.37534195315774
N         5.14422671205110    2.29525291083135    7.54517929998605
C         6.29351454582572    3.04927389032434    9.62597866996381
H         5.89473592883586    4.06128015171231    9.50580770246106
H         7.26545870368496    3.00875191741080    9.12531425471257
C         5.34991183237909    2.03207250434574    8.97498712445182
H         4.36720650734179    2.09624908048488    9.45701711559994
C         5.90184881282089    0.62168099065753    9.16075083567947
H         6.86729084172663    0.54570886079197    8.65442811665700
H         5.21879367065346   -0.09676091070422    8.69372770990559
C         6.07779878532942    0.30523557179591   10.64192650193040
H         5.10510294798845    0.33329650453677   11.13746794689773
H         6.48146499556317   -0.70146505928886   10.75546977615098
C         7.01167740861934    1.32035978012590   11.29561920241131
H         7.11388178179367    1.10197625047752   12.36006509841633
H         8.00296101604232    1.24589377031456   10.84258756857230
C         6.47500006079220    2.73635408732107   11.10893737338322
H         7.15985911160936    3.45936692197078   11.55688494714419
H         5.51204690195770    2.82849363246165   11.61650983972540
H         6.05287286367927    2.29656383499530    7.08732239983100
H         4.75913895396145    3.22758663056917    7.42787789698581
N         2.48507439289995    2.29524143041605    5.20580067838965
C         1.33582013628050    3.04927074822607    3.12498343156148
H         1.73461260018272    4.06127133871078    3.24515661422414
H         0.36386818994362    3.00876359289349    3.62563354005173
C         2.27939869391034    2.03205798054685    3.77599126168843
H         3.26210913518668    2.09621494060233    3.29397212704911
C         1.72744108288651    0.62167431449142    3.59022823404103
H         0.76198972026124    0.54572140296656    4.09653606364167
H         2.41047856555634   -0.09677624153642    4.05726319643093
C         1.55150955040875    0.30522464171667    2.10905111404753
H         2.52421392717824    0.33326641282701    1.61352567351183
H         1.14782888360022   -0.70147009847773    1.99550613497836
C         0.61765813961132    1.32036067936581    1.45533800062320
H         0.51546998437518    1.10197452946755    0.39089124845375
H        -0.37363499374393    1.24591152646105    1.90835176954055
C         1.15435289185643    2.73634803379312    1.64202301952830
H         0.46951107608997    3.45936913629413    1.19406202394086
H         2.11731549264360    2.82847129174255    1.13446568878121
H         1.57642700286588    2.29656568974480    5.66364929125360
H         2.87017045129210    3.22757298522199    5.32310457189226

