22
CSD_code = YUXXEV | q = 0 | S = 0 | Stoichiometry = C8H11AgClN | MND = 2
Ag        0.43532773152052    1.29563344158805    1.24694000454732
Cl       -1.23348966575290    1.21555510343843    2.72970334659338
N         2.20975987850503    1.39902820450171   -0.22486459549068
H         2.42432006521189    0.45765085463073   -0.54617380754225
H         1.97553239418797    1.93949799392811   -1.05306196889310
C         4.86247583396292    1.89984390781893    2.42223000339979
C         6.19270785963573    1.57096916096640    2.19875617596300
H         6.43909244233043    0.77513642257688    1.50979816232583
C         7.20414672428457    2.24868602874304    2.85666237551201
H         8.23510651625311    1.98153297747556    2.67694693692248
C         6.89490641746686    3.26531964001323    3.74355956403871
H         7.68381715856810    3.79378375631115    4.25750894595782
C         5.57060106001031    3.59923884557054    3.97234519279028
H         5.32373565484734    4.38852973317145    4.66666570651838
C         4.56062374884431    2.92072772225237    3.31421990261910
H         3.52663943994453    3.17703087291233    3.49926874148372
C         3.76314700781030    1.19854588669926    1.67606171404731
H         2.86082871256766    1.14296421784164    2.30312929382346
H         4.06726467423855    0.18193340492995    1.41816297873478
C         3.41137984751862    1.96644563988052    0.40055110941352
H         3.20281881935389    3.00870813629904    0.65418355910556
H         4.26985767869726    1.94703804845062   -0.28469334187090

