52
CSD_code = YUXYUL | q = 0 | S = 0 | Stoichiometry = C15H29ClO6W | MND = 6
W         1.75227636433240    3.17588466388238    0.95015930113082
Cl       -1.68858921137362    6.71065787621489    1.50908715927323
O        -0.01942860531175    3.22128581988174    1.64702866994199
O         1.84380682804858    4.95608999671662    1.70249571122103
O         1.38938343907421    4.01692221008220   -0.69824133834672
O         1.39454812979608    1.61356906741907   -0.01826959216422
O         2.17490905638840    2.24089188511631    2.52438104845151
O         3.60901155956889    3.19595142990941    0.70713010508133
C        -0.13362415594142    4.15241217079600    2.67428082775600
H         0.36023551310732    3.75887647106166    3.58916757094995
H        -1.19349573306798    4.36770668786266    2.89392283522610
C         0.62653203317476    5.41039107917404    2.19147697240109
H         0.77684899203514    6.14241133846511    3.00831271570946
C        -0.11680140918687    6.07222394222827    1.02083027804314
H        -0.26576570894353    5.31632660808251    0.23697840067503
H         0.47181826226898    6.90281739403735    0.62834721641880
C         0.62216577017806    3.77258583021476   -2.97754033968999
H        -0.35930179403590    4.10352558247735   -2.65151962610702
H         0.51279605495218    3.06169740654448   -3.79171418048128
H         1.16952605547879    4.64022003931291   -3.33743564299527
C         1.39294775987498    3.14797245151550   -1.80348276864045
C         0.75720829094502    1.81664205251643   -1.25484859793957
C         0.97180671060934    0.59856112254070   -2.16825203773664
H         2.02594699596263    0.34123292501599   -2.21267770658312
H         0.60371817400208    0.79650533330046   -3.17091306619739
H         0.43307723071653   -0.25086318907166   -1.75587742504191
C         2.86266043387710    2.91157243251157   -2.20767041899912
H         3.37182486852472    2.39361594544633   -1.38628110027647
H         3.33780614747757    3.88178999616575   -2.34903115594384
H         2.93832083583955    2.33682473971774   -3.12723524826348
C        -0.74816069585027    2.00887443888825   -0.98822436320712
H        -0.88950842643255    2.92526901213584   -0.40669319832597
H        -1.09982539678769    1.16895518113770   -0.39050737833836
H        -1.31517096817962    2.05371144345099   -1.91451094623847
C         3.90888957154803    1.43460197247887    4.00079731413456
H         3.71788795296672    2.29423979248913    4.63599443499185
H         4.96201930850759    1.17242415018461    4.05088255139230
H         3.31921789567937    0.60080585046222    4.37375984664803
C         3.48473971172656    1.73691226233820    2.55409820891226
C         4.34597380193362    2.85189003466901    1.85470983750716
C         5.75947780181351    2.39746776622065    1.45567746354401
H         5.70696095546531    1.64140984249758    0.67775702219004
H         6.29559471284311    1.99946895463585    2.31255918680596
H         6.30593094562628    3.25112805266868    1.06251734779085
C         3.51514450779315    0.43838203234837    1.72203323774635
H         3.31394804158561    0.68657987515892    0.67398852217208
H         2.72040304490300   -0.21556364976403    2.07942176799254
H         4.47050058196564   -0.07196174750596    1.81582524819356
C         4.43351582363465    4.09217166315130    2.76545001094397
H         3.43521842058484    4.30909373874942    3.15982159617401
H         4.75762759663337    4.93951703661093    2.16233623846263
H         5.13774592366695    3.93652098785419    3.57889748363629

