41
CSD_code = YUXYOF | q = 1 | S = 0 | Stoichiometry = C17H16MnN2O5(1+) | MND = 6
Mn        3.89618074310565   -2.97118425028532    9.40177960685187
O         5.86588589114040   -3.94803122981071    9.36238240017824
O         1.86034575355019   -2.03806178199145    9.54122222349711
O         3.52698367974225   -3.88692256849798   10.85490865471831
C         2.34251463836805   -4.34836632218477   11.14594910242658
C         1.72253833349187   -5.10169285944764   10.00244018152387
C         0.67982056679382   -5.97616297858106   10.29931521707302
C         0.07240025539215   -6.71369616067273    9.30463619090843
C         0.53516266555099   -6.62151881939424    7.99351506404875
C         1.58658844683133   -5.79404511823000    7.67792491577244
C         2.21879187390909   -5.01734652256165    8.67184131872894
O         1.79898300133432   -4.23096105956347   12.22280139756048
O         3.28141856379501   -4.31138436881308    8.36342827898296
N         4.34018767797653   -1.84082914451139    7.83920160701125
C         4.22219014412531   -2.21686666847002    6.56162223321474
C         4.53487898130019   -1.39487091478397    5.49603735884542
C         4.99623364026067   -0.10917186759398    5.74957488603154
C         5.12872225032429    0.29435164105542    7.06500142686401
C         4.79783016915839   -0.59032187529491    8.08901956605140
C         4.91428896130125   -0.30315874240549    9.51445955413246
C         4.62973154394386   -1.21568647134221   11.61425308743779
C         5.05846823317098   -0.05359176900233   12.22729623127855
C         5.42971134423760    1.02771508034333   11.43784679754670
C         5.35651689793330    0.89854328838570   10.06313601688968
N         4.55246576644349   -1.35275846893736   10.28688186609835
H         3.85832386047074   -3.22358907961277    6.39861634211028
H         4.32993476654442   -2.07375779950704   12.20400330004688
H         1.96956348426178   -5.73643965024448    6.67014212247092
H         4.41926481611471   -1.75492434393252    4.48691593990858
H        -0.76235023282473   -7.35395417966065    9.54057727960778
H         5.24732151937963    0.55854476567609    4.94111114424693
H         5.09882975231907    0.00157778536643   13.30275781202446
H         0.06867092737742   -7.20840046853469    7.21727671095044
H         5.63629243623524    1.71835489177625    9.42301551923947
H         1.16731841659138   -2.32010558930544    8.92937960854754
H         5.76744678216136    1.94846880344672   11.88589348900317
H         1.46719809427699   -2.05733012647878   10.42628140228402
H         6.04521183058728   -4.37245907072539   10.21433343498328
H         5.48605751737733    1.28352898397055    7.29758651315411
H         5.89597481248536   -4.64907606893477    8.69558617494992
H         0.34830119345904   -6.03181890070671   11.32544802280538

