106
CSD_code = YUXZEY | q = 0 | S = 0 | Stoichiometry = C41H47F6MoN3O6S2 | MND = 5
Mo       -0.01143894917259    8.71294256174388    4.73612709149002
S        -0.70661366196344    5.64340791427797    3.78573284516082
N        -1.47604487863878    9.62226584580159    4.49292504981201
O        -0.41965133660562    7.08211979951387    3.54327730093648
F        -3.31915193769822    4.77141293515488    3.74349505341709
C         1.34082307265737   10.28841399450824    5.32767423401003
S         1.93135793972516    6.96024251006682    3.20362280868566
N         1.66858776418740   11.26139570803845    4.47544282329221
F        -2.71876098409118    5.95213692661752    2.04226705631156
O        -0.23266048943309    4.73038397977029    2.81149472962650
C         2.95653593930604   11.88890972536606    4.76960436026916
H         2.80624696081471   12.94804329540311    5.00705060360757
H         3.62212125253126   11.81990095558904    3.90774125335349
N         2.32643785509913   10.16794804289128    6.21673205563603
F        -3.06538361462813    6.90321102103445    3.93868644252169
O        -0.71492714572551    5.29657563328208    5.16983361846255
C         3.45218587406451   11.06953508190347    5.95844032112604
H         4.34739806082667   10.48769186007775    5.72038232709654
H         3.66346077779869   11.67407851319884    6.84408427526857
O         1.81766927548148    8.29393524066728    3.85358580105972
F         4.20712444035982    6.57606278522922    1.76060079856141
C         0.86488942142232   11.80400170812289    3.43460984211011
O         1.50617757130405    6.93670818185706    1.85120933895339
F         4.49187154989294    6.20532566457027    3.86035459928809
C         1.21531344020918   11.60610232200793    2.09835342587692
O         1.74150748588090    5.90223461198768    4.14392150090319
C         0.46773867761805   12.24275267860308    1.11502053999892
H         0.73755516559693   12.09070819207514    0.07990974301036
F         4.33928926541555    8.22415082305141    3.13569004232014
C        -0.60807899219114   13.05674477953220    1.42744090417956
C        -0.93645003920191   13.23745350388736    2.76492165600345
H        -1.77623834859891   13.86554336915070    3.02148384811457
C        -0.21218900055442   12.63083940472582    3.77572428990667
C         2.36260761194667   10.72509649891533    1.70401795908303
H         2.53916778600105    9.94759734959452    2.44473094082226
H         3.27631817294903   11.31025101504404    1.58678212731235
H         2.15617157528047   10.24292544649658    0.75145009874308
C        -1.39904913616915   13.74410751405728    0.35933955413008
H        -1.16678152857985   13.33909218643687   -0.62169927014287
H        -1.17206116880006   14.81013431680360    0.35276709052639
H        -2.46379117271177   13.62965652648323    0.54847991674176
C        -0.55950245000706   12.86897277558452    5.21356167876544
H        -1.43817127131897   13.50323629223405    5.28648689974099
H         0.26343028543117   13.35771164888422    5.73495380291391
H        -0.76355598953320   11.91297178078837    5.70024767468093
C         2.32468440445710    9.45847165186298    7.45347591990647
C         2.93317764491253    8.20830070300771    7.56816077896434
C         2.98860728897433    7.60693979682005    8.81828215794326
H         3.44863328968379    6.63413320110750    8.90653803900337
C         2.48398120383722    8.22651064948603    9.95057139990998
C         1.89625239261772    9.47595150615301    9.81312623958240
H         1.50346372687928    9.97542869851698   10.68704782481019
C         1.80954263470231   10.10588960146823    8.58158077810436
C         3.53264121958608    7.50922460227961    6.38921511570152
H         4.50147528178535    7.08620397137045    6.64899953581812
H         3.65692648108741    8.18589566815753    5.54765775776611
H         2.89535344509905    6.68452010847265    6.06256547887393
C         2.61929498925623    7.57807221227961   11.29130326262303
H         2.39534090427702    6.51680141299324   11.22380681179817
H         1.94981539785048    8.03468987679719   12.01455653461796
H         3.64211723066002    7.68630259126054   11.65296281062258
C         1.19008370112816   11.46801107339957    8.46853949554253
H         0.61423385958205   11.69843156114832    9.36059819184719
H         0.53370212294697   11.51529598379028    7.60221804236300
H         1.95923691327946   12.23391713753186    8.36451756552887
C        -2.40386851207399   10.26850659227657    3.75905840930376
C        -2.28591878999277   10.21197956034620    2.34654397130000
C        -3.19992273052059   10.88919442868962    1.55836127548009
H        -3.10656370662439   10.83285319110232    0.48357086400496
C        -4.22920057142012   11.62297344603742    2.12117853013969
H        -4.93039305136197   12.15020985163642    1.49151743459990
C        -4.37089072937849   11.65061304315438    3.49674802091836
H        -5.19344051985681   12.19526835635373    3.93814921790442
C        -3.48834072834926   10.97752802194944    4.32406081992836
C        -1.22583733068086    9.38130652070583    1.69659862132065
H        -1.57964052549433    8.35565044908898    1.57054108786088
H        -0.31142167518963    9.33828548164796    2.30452829747724
H        -0.97950664748050    9.77572753995831    0.71316394038277
C        -3.70910916302239   10.97514970625511    5.80500007596816
H        -4.68252800468287   11.39742716599830    6.04170485573582
H        -2.94679674471689   11.55718412516458    6.32009501481918
H        -3.66278532460461    9.95497444022890    6.17857281675446
C        -0.24329292199280    7.90391057975819    6.48012955231280
H         0.62891875693450    7.25726275512145    6.61178948830880
C        -1.21322894118717    7.77971439901878    7.60931524391771
C        -2.51921575409804    7.19110331912906    7.03528131923571
H        -2.89219520988582    7.84132870868572    6.24735332655301
H        -3.26273883218632    7.09489742610095    7.82454389714005
H        -2.32411118394634    6.21125572058567    6.61024719291570
C        -1.51125579726184    9.18669436377104    8.15076902295839
H        -0.68695206659412    9.53287161750376    8.76464232895417
H        -2.42498636060661    9.18911356935915    8.73987081618605
H        -1.62495771547104    9.85535963393662    7.30084080234145
C        -0.73103383963941    6.82910619781872    8.69529354963988
C        -0.83831210244899    7.11797404855191   10.04981836193658
H        -1.25347041041486    8.05590747154524   10.38207280306980
C        -0.43084472397355    6.20289254718707   11.00641586004396
H        -0.53285601748627    6.44529908243009   12.05498644178805
C         0.09957927593180    4.98369531178759   10.62742982878817
H         0.41767154320953    4.27073878140339   11.37487384126492
C         0.20344450893044    4.68114827441711    9.27999377893336
H         0.60180851147212    3.72654498252539    8.96902534414036
C        -0.21555982888908    5.58915189845734    8.32509121684988
H        -0.16348854567669    5.32125848194117    7.28031085182305
C        -2.55615911162491    5.79885188674865    3.36056514615326
C         3.84475226357391    6.97366209266038    2.97886393588835

