33
CSD_code = YUXZOH | q = 0 | S = 0 | Stoichiometry = C8H18Cl2N2O2Pt | MND = 4
Pt        0.00026709842752    0.00000022532270    0.00016508100898
Cl       -1.84533809653770    1.34779394517428    0.44401083730551
O         2.33291963393568    2.34059650966733    2.61778287593143
N         1.06136078492310    0.76232689453201    1.49919853822890
H         1.39863455247151    0.06007778480109    2.16007623503962
C         1.50570009850455    1.94843936798768    1.64871771401740
C         2.80721587014851    1.39373003792435    3.56167183804173
H         1.98582163163330    0.97964351232799    4.15324585040180
H         3.48021294273929    1.94530800265800    4.21453403154153
H         3.35780263780034    0.58713221086878    3.06902797169201
C         1.13477035286938    3.05632973800372    0.71112727896185
H         1.53324476529286    3.99025602541550    1.10712455246219
H         0.04421243973675    3.10838197195033    0.66663309694499
C         1.67308862131752    2.78736202251560   -0.69538287506848
H         2.75863131863922    2.72613154146383   -0.69237906634376
H         1.36548740494815    3.58475024841700   -1.36533605035109
H         1.26810572397754    1.84052379250475   -1.07008158616085
Cl        1.84355975629487   -1.35077199262597   -0.44593381091710
O        -2.33280689722550   -2.34032916041557   -2.61759247051164
N        -1.06119910757691   -0.76199165944657   -1.49893826499495
H        -1.39830346500841   -0.05980779414048   -2.15997586868661
C        -1.50555424092276   -1.94812053084585   -1.64853529511045
C        -2.80715275061351   -1.39356705375377   -3.56155282889346
H        -1.98575577795304   -0.97953347222441   -4.15315019804745
H        -3.48014560442458   -1.94520917269118   -4.21437331334052
H        -3.35775684308045   -0.58693947379671   -3.06895886434486
C        -1.13460115171369   -3.05608095783661   -0.71100660188456
H        -1.53317759297369   -3.98994711665082   -1.10704973246883
H        -0.04404707058486   -3.10814983084831   -0.66651995782685
C        -1.67302527960362   -2.78723068243152    0.69546248948809
H        -2.75854878884619   -2.72596774003870    0.69235805900442
H        -1.36556054003523   -3.58468574230632    1.36540295140531
H        -1.26806242655276   -1.84045145149350    1.07022738346439

