74
CSD_code = YUYBID | q = 0 | S = 0 | Stoichiometry = C37H33As2ClPd | MND = 4
Pd       -0.38714572738090    3.94040071194751    5.77387939361380
As       -0.75946629275028    4.20019059715544    8.04305879887375
As        0.08680886180573    3.16362177843053    3.63238074861169
Cl       -0.47001746926062    1.65321207944589    6.39767675792738
C        -0.28706748553949    5.93221969997935    5.26323110390388
H        -1.27134274173209    6.23631585408814    4.87980030642246
H         0.45177056072240    6.09155141125626    4.46378964781329
H        -0.02400137174583    6.57737172057910    6.11166384375856
C        -0.91039055360540    1.77444126880642    2.71023695350128
C        -1.99701352328466    1.18453116449390    3.34351604229235
C        -2.72162028071702    0.19331202309912    2.70377832739202
C        -2.36863253967204   -0.20716244625747    1.42619538887155
C        -1.29379027190583    0.38695788378208    0.78370911860810
C        -0.56843409161699    1.37751580261160    1.42094862119860
C         0.55676821083092    4.29311113909016    2.11053243346542
C        -0.48010012509868    4.81278076440986    1.34049644579307
C        -0.21280647316564    5.65582682342086    0.27812503256481
C         1.09757881421388    5.99671026415679   -0.01881055327913
C         2.13445681698575    5.49629788581244    0.75009822112664
C         1.86580692830229    4.65088766975637    1.81368319165759
C         1.80385498995990    2.37353484472443    4.07915641909196
C         2.32950305501389    1.24278245193705    3.47093673661890
C         3.53669721167729    0.71947981165842    3.90431365576983
C         4.22102915509543    1.31970362909373    4.94728602008075
C         3.70088658829405    2.44788001351807    5.56206645665316
C         2.49705840484365    2.97317683419291    5.13015645915585
C        -2.62123323326753    3.69755128650789    8.21072184666732
C        -3.27366370440213    3.60802113052281    9.43547484592083
C        -4.61628051118867    3.27611921108129    9.48300588853903
C        -5.31601269821570    3.04613851263625    8.30907886497195
C        -4.67959378003342    3.16223444752170    7.08404837526309
C        -3.33653198657172    3.49176726228875    7.03498429211858
C        -0.83210150430879    5.86251788489203    9.06646413152273
C        -0.10003125424969    6.10024637043837   10.22209690016259
C        -0.22520746461746    7.30822265408185   10.88890821500510
C        -1.07918822257563    8.28439913091933   10.40500030293939
C        -1.81160724054133    8.05541534618286    9.25044217548727
C        -1.68467865504111    6.85140899480743    8.58425385128855
C         0.29665745252195    3.05283496812338    9.18884224188015
C         1.67243702137590    3.26614718013700    9.15584473777486
C         2.52526272149436    2.45063508856577    9.87564772797174
C         2.00600728543580    1.40872881431543   10.62785194389182
C         0.64049171651256    1.18142419124632   10.65002570547666
C        -0.21511923054025    1.99817481031569    9.92957635207939
H        -2.25393669449175    1.49537344204984    4.35237709358132
H        -3.56201509404567   -0.26773716139473    3.20229483070310
H        -2.93264645127835   -0.98139618773433    0.92660230725197
H        -1.02195930819336    0.07740124751161   -0.21557557521201
H         0.26530197529290    1.85834781834803    0.91673575634369
H        -1.50344506500527    4.53877040075247    1.58872307672104
H        -1.02258435770337    6.05150195622267   -0.31789836085877
H         1.30902336549863    6.65621770544934   -0.84760537422703
H         3.15554852719782    5.76640811627322    0.52131662225272
H         2.67675467879595    4.25959745893443    2.42065106143929
H         1.78036165171515    0.76092700769115    2.66905464447077
H         3.93921577483762   -0.16606116010674    3.43317989237073
H         5.15740102750830    0.90318747060695    5.28929715778068
H         4.23112949108844    2.90946646243438    6.38318539717018
H         2.07494613504223    3.86554539051057    5.62252171035023
H        -2.72159981561452    3.80905276954409   10.34968394114870
H        -5.11998091834168    3.19745327146994   10.43608340999611
H        -6.36281031767098    2.78215469582864    8.34998632266140
H        -5.23191971779025    2.99605762051203    6.16996577829285
H        -2.82108398923850    3.59077887293901    6.06558614141460
H         0.56750144313130    5.33236944318718   10.60079518284617
H         0.34559933585951    7.48763160312790   11.78883348981693
H        -1.17381133353536    9.22548074685839   10.92659295540304
H        -2.47731496262434    8.81799705462990    8.87246096652630
H        -2.24980939250544    6.65596244572700    7.67535622405086
H         2.06169156330061    4.08073349516682    8.54355105387583
H         3.59296776606905    2.61741685241996    9.84580560941385
H         2.66962958763384    0.76486508507782   11.18662806634701
H         0.24043731909174    0.35657509606309   11.22244693342506
H        -1.28098958639345    1.80118201437462    9.91798971434012

