71
CSD_code = YUYDIH | q = 0 | S = 0 | Stoichiometry = C36H28NiP2S4 | MND = 4
C         8.51987335714345    1.61174926582745    8.48971362864511
C         8.11225528826475    2.67632194125217    9.30350813636757
C         8.75289757651760    3.90445272430034    9.20472032711645
H         8.43573442418469    4.71250984489674    9.84666004760139
C         9.77265430709426    4.08734042508519    8.29067887207035
H        10.26107483994383    5.04759955041551    8.22056854845757
C        10.15611276610726    3.04762179937608    7.45794654937704
H        10.94414360429350    3.19250657064340    6.73441011533700
C         9.52891303620354    1.81998677176981    7.55538814205892
H         9.82571424021240    1.00461535402006    6.91086411630410
C         7.33096876776692   -1.26139900763029   11.03417509747004
C         7.68739059014242   -1.78902404912740   12.27252485358893
H         6.95227306675562   -2.33190380953878   12.84697028294325
C         8.96746475927915   -1.59841310042017   12.75319634745322
H         9.23606281914203   -2.00257153148426   13.71825798848578
C         9.90705093375860   -0.88195449279702   12.02257441547795
H        10.89808779064957   -0.72458901753091   12.42071127670355
C         9.56918955891829   -0.36691226555448   10.78432847355855
H        10.28442740668146    0.20096993948528   10.20363892622156
C         8.28966592233344   -0.56983286467148   10.28743063019207
C         8.50251719296485   -1.08141470695543    7.44612654221166
C         7.97218219111404   -1.07878561938030    6.15714315702314
H         7.13880701488478   -0.42661724823431    5.92701526292516
C         8.51139955763085   -1.90254635332717    5.18783775603492
H         8.09890381678421   -1.90003784430905    4.18995943708361
C         9.57238728180715   -2.73734529821004    5.50185249536509
H         9.99093114645295   -3.38563982042897    4.74617310212878
C        10.09114482352269   -2.75061299271351    6.78648125862141
H        10.91239325578878   -3.40831879420702    7.03153579736804
C         9.55760855547977   -1.92925407151454    7.76395741197447
H         9.95384887864078   -1.95057435641102    8.76927940777756
P         7.71358640639302   -0.00031006831388    8.67018467645916
S         6.83428251780257    2.53045625735387   10.51713644192676
H         6.06528692157000    1.58730095481116    9.84891409511331
S         5.70794930470748   -1.44217379787016   10.42684725936437
Ni        5.57281339163273   -0.00106057884347    8.70731687973035
C         2.62324356290325   -1.61179106060258    8.92338612217425
C         3.03046096986091   -2.67744123307062    8.11081699722898
C         2.38784759167783   -3.90456554089890    8.20937346171302
H         2.70471971514319   -4.71348884279989    7.56838394579210
C         1.36648699193334   -4.08539593215816    9.12204311498916
H         0.87657079469757   -5.04489936300106    9.19205788315225
C         0.98339371187570   -3.04463681648438    9.95364039777673
H         0.19410052388970   -3.18791697304234   10.67612143420649
C         1.61256100352017   -1.81799468253826    9.85639421840357
H         1.31593109594970   -1.00179305137677   10.49994319375583
C         3.81756898775159    1.25964909993737    6.37884974842130
C         3.46311344356045    1.78680915435658    5.13975671120085
H         4.19924163686430    2.32928982021796    4.56621999395582
C         2.18369786699283    1.59630620523689    4.65732548275002
H         1.91658643827831    2.00012385524141    3.69170988338388
C         1.24293118864356    0.88045337073891    5.38700577900309
H         0.25236676972895    0.72331360451444    4.98761420622677
C         1.57894882638603    0.36569108589278    6.62589121088961
H         0.86267533131356   -0.20171582224845    7.20575892801219
C         2.85784112915639    0.56834655043288    7.12450882718586
C         2.64242954272150    1.08170801946161    9.96517070534943
C         3.17124090542930    1.07895829046211   11.25477860560388
H         4.00366791554187    0.42596441884022   11.48606702654101
C         2.63165924037921    1.90356602791714   12.22316178043328
H         3.04294477946495    1.90101745218645   13.22153787217404
C         1.57186993312590    2.73930185796910   11.90756554946961
H         1.15309881214156    3.38831791676636   12.66250099327567
C         1.05465136164449    2.75266271743056   10.62231698020145
H         0.23436532091526    3.41112009224281   10.37604412327243
C         1.58853625269205    1.93043060520496    9.64576346577852
H         1.19349741313139    1.95170919979840    8.63996513381600
P         3.43178733923163   -0.00087549616308    8.74271466368357
S         4.31024392572179   -2.53393065871002    6.89878764663578
H         5.07966643938350   -1.59157990436253    7.56753694761826
S         5.43955592577952    1.44114632284360    6.98855920938508

