113
CSD_code = YUYDOM | q = 0 | S = 0 | Stoichiometry = C44H52N4O8S4Zr | MND = 8
C        -8.58439476195911    7.22923965019832   27.03074290377591
C        -9.92059090848748    7.37219213957628   27.40737805377853
H       -10.46481496143059    8.24107871494990   27.07586652018377
C       -10.52092378630654    6.38818076475646   28.16645300340083
H       -11.55815585761641    6.49740044499059   28.45275907308935
C        -9.83515234126072    5.24026602398435   28.55072171699146
C       -10.56482308295398    4.18418828197251   29.34183972037126
H       -10.64721895855370    4.52104472433700   30.38118374698734
H       -11.58216097508139    4.07970662202080   28.95734997859122
C        -9.84898690323757    2.83950295925067   29.31286238380798
H        -9.91372324531304    2.40790882302351   28.31210549484998
H       -10.32603025987957    2.14879233160968   30.01183143502082
C        -8.38559116636739    3.04875267102680   29.67721377904806
H        -7.87412252392469    2.08961099469685   29.78161556743591
H        -8.32479178239466    3.56813586720165   30.63606390055177
C        -7.70469477884061    3.87995786703768   28.59509651690536
H        -6.69479905740805    4.14731020782764   28.90639398727774
H        -7.60305525525529    3.27835835720053   27.68546408660947
C        -8.48354770532548    5.12089560544110   28.23392013340359
C        -7.84541528206702    6.13935116502623   27.52043031886090
C        -6.37417899450285    6.08995923668510   27.29555488586022
C        -5.49297555541061    6.35049040899857   28.34885656927290
C        -6.04339421564134    6.87335882592536   29.65297188267278
H        -6.29247297503256    7.92975472107369   29.50550462347659
H        -6.97565335230046    6.36471858741952   29.89868908722225
C        -5.05421730593619    6.74366169790692   30.80627935161990
H        -5.43277772431443    7.28059159877979   31.67855509683470
H        -4.94201384455232    5.69263442602208   31.08117969229115
C        -3.70122239626490    7.29744876182699   30.38113199423244
H        -3.01130693136110    7.32307889622060   31.22762419396322
H        -3.82769692040593    8.31843013001253   30.01565293176128
C        -3.13129971066868    6.41997427110398   29.27356467652595
H        -2.84260449433597    5.45250615827149   29.69916381172536
H        -2.22585170201222    6.87154786445637   28.86127170843551
C        -4.12271565428938    6.17970303784011   28.16317197477321
C        -3.65829932620028    5.73030034737829   26.93110249440277
H        -2.59836221378417    5.55685277015535   26.80397946859492
C        -4.50993766054417    5.53036594577499   25.86366439224261
H        -4.14270763459001    5.22271910474426   24.89853619478691
C        -5.87714644376235    5.76120390826485   26.02329506381375
C        -9.36145077309120    9.22762938183508   22.03303935874211
C       -10.27226841854036   10.20511025964528   22.43662506173306
H       -11.00160663691064    9.97643455620684   23.19635673755181
C       -10.19872837102935   11.47784160492452   21.90679024857628
H       -10.90421474895849   12.22746968223669   22.23693985283593
C        -9.22611272507678   11.82812636611461   20.97830835421398
C        -9.14915207211961   13.25483305424868   20.49877292133700
H       -10.15929566123226   13.63944124089282   20.33802187873016
H        -8.69575737096106   13.86198277652729   21.28940179940210
C        -8.32204454415194   13.39672714248275   19.22663649347133
H        -8.15038316781188   14.45344059570694   19.01047844389402
H        -8.86271741911705   12.96336021620755   18.38274867304111
C        -7.00069886532923   12.66169772904043   19.40927881342766
H        -6.33334195100528   12.85504853996483   18.56655544702443
H        -6.51225793436445   13.02099445421716   20.31714991942347
C        -7.26636729233645   11.16446190830814   19.52385149501152
H        -6.35334281822884   10.63390221535881   19.80181188738873
H        -7.57150982492497   10.78235209061145   18.54471255216658
C        -8.33997498363105   10.84943057701045   20.53564199856311
C        -8.44105951843080    9.54454192081841   21.02413540807564
C        -7.58231866919628    8.48180857305383   20.43781531841503
C        -7.90334311499208    7.94320767644057   19.19013077214738
C        -9.22973318436271    8.29106427810034   18.56190578560222
H       -10.00001542329016    7.71020105450489   19.08032156384971
H        -9.46452062966811    9.34192749613316   18.73284920635309
C        -9.27662378282951    7.97288479348297   17.07126741205834
H       -10.29585583227216    8.09711786389516   16.69901134118871
H        -8.63240960317371    8.66475038730782   16.52425544166444
C        -8.79126498239099    6.54820833086968   16.84080054180052
H        -9.37346733452212    5.86408824515277   17.46099645282572
H        -8.92706094440307    6.25825716026119   15.79640817980331
C        -7.31778154940518    6.45673655917049   17.21761230120623
H        -6.72553049076584    7.00073787546696   16.47328979827291
H        -6.98532843578092    5.41654580017647   17.19485017038689
C        -7.03458171925901    7.04332927041465   18.57697732093861
C        -5.85076932260574    6.71022550521802   19.22282758836199
H        -5.16023661491884    6.03337751576800   18.73937766643459
C        -5.54575221229881    7.19936267142346   20.47729761727944
H        -4.64891781793352    6.87793590386733   20.98095086853660
C        -6.43191856384512    8.06255734537276   21.12290221259077
C        -6.78200742668901   10.49513544250362   26.48637933706819
H        -6.89629513703768   10.57729606009303   27.56008611740849
H        -6.76242770633133   11.47726692930595   26.03129830518353
H        -5.91082727541696    9.90962888569057   26.21912530181729
C        -8.05381786575945    3.72645943785484   23.69976473844264
H        -7.71454084917022    2.90805568290482   24.32247889006310
H        -8.25804870768655    3.37871430280240   22.69503842381037
H        -8.90784597375097    4.23271205890993   24.13275983855367
C       -11.69501323320512    6.65139563696634   23.16407118323090
H       -12.34316961368686    7.39712305949249   22.72126512483924
H       -12.17808856837223    6.18017312484896   24.01011296704807
H       -11.38504288222784    5.91977722092641   22.42977710257540
C        -3.68615733393120    9.26820325475242   23.21180734294948
H        -3.21365562762377    9.14050618715569   22.24601168233862
H        -2.98848518598477    9.04875565766243   24.00948332003770
H        -4.10123834194693   10.26222558815487   23.31333193340429
N        -7.92498903122095    8.09150362860513   26.16490024802906
N        -6.79849819616748    5.71608317165007   24.98528484661758
N        -9.30845726552937    7.93488706444751   22.56236129777504
N        -6.24465269368362    8.55715584339713   22.41674626727472
O        -8.00843775409456    9.60650269375131   24.35300502108674
O        -9.36890755735396   10.27690561429638   26.34216431355282
O        -7.25478724477899    6.00093198488916   22.68272576197461
O        -5.55362309046936    4.24388205404522   23.20475258463161
O        -9.36412387144253    6.38672873367202   24.35015657443764
O       -10.56248706487736    8.45184752475392   24.74908768489099
O        -5.64176812716326    8.32855694524584   24.69342164351722
O        -4.56446582257213    6.76496769950369   23.19059981092031
S        -8.21769910451707    9.59421101577825   25.82618324854978
S        -6.72520429917282    4.96495844644734   23.61084429290687
S       -10.18814417106847    7.47250087472118   23.76776566995800
S        -5.07326733891300    8.09878822601856   23.34334894962491
Zr       -7.56448166338948    7.56733441533806   24.05471285573574

