49
CSD_code = YUYHOR | q = 0 | S = 0 | Stoichiometry = C16H24B2FeN6 | MND = 6
Fe        7.17768329409455   -0.00003458568486    6.24617766782204
N         6.72368934863453    1.33555104987195    5.02392442896840
N         6.69011714644837    1.31535367556880    7.77797478932499
H         7.09283838307619    2.23393235344250    7.61245176715516
N         5.34173394123167   -0.49948764182734    6.35321090408729
C         6.28483888753935    2.37682801922288    4.76444295782192
C         4.77235202653974   -1.54021976114593    5.73951369254306
H         5.42003943211108   -2.09267006234962    5.07725622461240
C         7.24785825650576    0.76133629871992    9.01097720817220
H         6.75768933062288    1.17484215915902    9.90330172195415
H         8.30807267074441    1.02151899114628    9.05203370425325
C         4.57540366912226    0.24389752194574    7.17027872818890
C         5.23155613176642    1.45960558349311    7.75860057551533
H         4.99208760844456    2.30162622602062    7.09218803001651
H         4.82868260877542    1.68142693451984    8.75550336023716
C         3.24398551714773   -0.05251916064044    7.41108792782622
H         2.66894199402092    0.57456507197291    8.07506657163591
C         3.45024509691297   -1.89505298468090    5.92108853030153
H         3.04508972638369   -2.74356801354308    5.39443610250065
C         2.66278088687318   -1.14176742073870    6.78027079983382
H         1.62604283391342   -1.38707788650806    6.94777452534702
B         5.69979071515832    3.80900354879759    4.73341816938233
H         5.29318564785405    4.11526790012477    3.65694722595595
H         4.80480064132281    3.75609821343424    5.55721410425483
H         6.59233284570299    4.52394398376991    5.11473767703146
N         7.66553164017470   -1.31571365821368    7.77741507382545
H         7.26290386396939   -2.23417974045225    7.61105714799262
N         9.01350705288318    0.50007722568540    6.35374992814400
C         9.58299398615302    1.54100639529414    5.74039595242670
H         8.93541564007377    2.09345772665797    5.07800473997752
C         7.10741056670769   -0.76260132175427    9.01060976293720
H         7.59733012954130   -1.17674994363536    9.90278008405717
H         6.04717547893010   -1.02278163452565    9.05112231036342
C         9.77998511086389   -0.24376947404376    7.17033221952737
C         9.12405949299432   -1.45987075436294    7.75802960520247
H         9.36357280046368   -2.30148312717037    7.09109742459550
H         9.52691745266783   -1.68225678701605    8.75480780696471
C        11.11142648559985    0.05246808088529    7.41122128878008
H        11.68637875046066   -0.57475813882802    8.07516055707612
C        10.90524847200601    1.89551585676673    5.92186582390679
H        11.31057192161803    2.74405922320445    5.39537441475336
C        11.69272104065033    1.14184544518222    6.78073366528491
H        12.72943101861992    1.38714929874875    6.94852262360876
N         7.63333293134525   -1.33392785615326    5.02269921159081
C         8.07071626664590   -2.37582788143207    4.76396768770343
B         8.65435662181563   -3.80856533251732    4.73457449915726
H         9.05677577184183   -4.11840510557222    3.65758436082720
H         9.55190021357860   -3.75491045017785    5.55521648893645
H         7.76339864944439   -4.52217806063456    5.12269992764978

