78
CSD_code = YUYJEI | q = 0 | S = 0 | Stoichiometry = C31H39Cl2NO2S2Zn | MND = 5
Zn       12.32730089130130    2.59621006498472    3.86327090821539
Cl       10.75955623213435    3.88842852058399    4.80486219246910
Cl       14.44658303628383    2.33186515251134    3.13893204770259
C        11.44326539928460    0.39421082490958    6.99034054867899
H        11.85184028310946   -0.35558663579651    7.66746521179501
H        11.15628064184523    1.28206449500057    7.55176906919865
S        12.86565075914470    0.98966094617520    5.97192228684296
C        13.06552906768404   -0.35150755588044    4.76160660324167
H        14.01187298087957   -0.09462674021431    4.27407113184110
H        13.17268600520434   -1.29445728758548    5.29559242724302
C        12.00353901588983   -0.44003653396927    3.71477158101575
N        11.49235112805625    0.68435888542138    3.22729666601301
C        10.60351917621496    0.64904383119567    2.23785872269735
C        10.19564176731319   -0.55229774126551    1.67302851534524
H         9.49187687900821   -0.55211247290608    0.85646485489716
C        10.70756620903788   -1.73515770463346    2.17908769541477
H        10.40189166321405   -2.68482366229501    1.76744108780514
C        11.62132936008963   -1.68167076473786    3.21436444149619
H        12.04650769644335   -2.58245171342662    3.62632502126749
C        10.05252144529009    1.94674497579010    1.75079392913138
H         9.45945588948513    2.42260120097275    2.53513126998353
H         9.45201794830988    1.80781099868560    0.85175898353549
S        11.34550941031369    3.18229854208388    1.38809837848282
C        12.37192002424669    2.25385120945487    0.17930280986976
H        13.21542457365364    2.91959292635509   -0.00176751406768
H        12.73466803182734    1.34818630524554    0.66259012779705
C        11.60483899002158    1.97764730273654   -1.06954418903195
C        11.27495845059939    0.68575176039461   -1.44734617645019
H        11.60979244811593   -0.14916739188464   -0.84700478939353
C        10.54158079138070    0.43801246608863   -2.59720119795427
H        10.33337305282173   -0.58478156074153   -2.87283743867690
C        10.10672356504808    1.49726130017760   -3.38705915031593
C        10.44742266206559    2.80122960239339   -3.01217729919058
H        10.11762349159794    3.61401008068765   -3.63952320736491
C        11.18374399076424    3.03411243942831   -1.87469199418565
H        11.43095850829357    4.04486896042937   -1.58758040020441
O         9.37602348794629    1.39124481630539   -4.52315880434808
C         8.67944783650154    0.19753669392610   -4.82506194524575
H         8.51836968988239   -0.40026628449279   -3.92343225113297
H         9.26835289928282   -0.39899485633263   -5.53476252909717
C         7.32956216957109    0.57010045695074   -5.44256164915446
H         7.51211719595488    1.09012919225343   -6.38380214165480
H         6.78381449480492   -0.35039313100633   -5.65749186766109
C         6.50235039106464    1.47985890970664   -4.53093257339127
H         5.60681023314476    1.79404906415394   -5.07088287514411
H         7.08889640272876    2.37373742029011   -4.31143893918161
C         6.09036754014688    0.81627125169042   -3.21872692845896
H         5.46119205104074   -0.05228793930953   -3.42905873848150
H         6.98186324308112    0.46967923688828   -2.69611077434490
C         5.33774410775919    1.78476666963863   -2.30866790879198
H         5.98872696487220    2.62973185101810   -2.07207067347668
H         4.47068281654190    2.17662124457413   -2.84529866307975
C         4.85843705812045    1.13977868884742   -1.00734725990111
H         4.19925324040881    0.30043566468223   -1.24080963236594
H         4.27280528155659    1.87361391492691   -0.44901051346239
C         6.00259351942167    0.64831984147375   -0.12243231895506
H         6.53090806725399   -0.16313448176249   -0.62656277708285
H         6.71266809969599    1.46398149741214    0.03571542074959
C         5.50559413908246    0.13777170348422    1.22875723132362
H         4.72286055390561   -0.60677654503782    1.06753206890955
H         5.06651639371346    0.96252729634040    1.79371453058232
C         6.63955764766224   -0.49004103076155    2.03378196484356
H         7.43301786602695    0.24453933271646    2.18748526193279
H         7.06374889361122   -1.32821966223013    1.47555084005091
C         6.16388864749401   -1.02244443269721    3.38609775222268
H         5.80863725618979   -0.20726418022232    4.02694689742133
H         5.33831560996603   -1.72406420008937    3.23383828579818
O         7.15660599498483   -1.78615226930678    4.04124664345145
C         8.16362980643084   -1.16867584296117    4.71450534096089
C         8.33758835556682    0.20572433127306    4.84640760842432
H         7.64954157615335    0.90267320371593    4.39512374303385
C         9.39558038342249    0.70554660606294    5.58379277519106
H         9.51797297341494    1.77486653678528    5.67513423298768
C        10.30608322492429   -0.14528030630000    6.19701553007879
C        10.13086766304395   -1.51935753903468    6.06038409153558
H        10.81897393088621   -2.19961576028055    6.54217905205643
C         9.07749477000134   -2.02557537027036    5.33163553712577
H         8.92831605675529   -3.08910661943654    5.23186380061196

