50
CSD_code = YUYNEN | q = 1 | S = 0 | Stoichiometry = C15H22BMoN6OS4(1+) | MND = 6
Mo       20.38344255208200    5.45053580575665   15.68566859681194
S        20.50956499257684    6.46433425531241   17.97667155184731
S        18.47710106451084    6.46090628864658   18.24330396815923
S        18.09237398857015    4.45331961002248   18.29528607235093
S        19.26712000568632    3.61503569906812   16.87177919286161
O        18.98540920722193    6.26834583188765   15.55130100985627
B        22.72433801127152    4.78972939611303   13.56839777209673
N        22.19571612231389    4.44119440741992   16.02286479747069
N        23.03940542110302    4.24742771514121   14.96492071093570
N        21.58499275921897    6.72490360724150   14.63042092438114
N        22.49512792938739    6.30297005079130   13.72378322670465
N        20.30913457229126    4.31558940274680   13.94659354485502
N        21.38282654543196    4.17825429383660   13.13576661486248
C        24.11074444108125    3.53301293929921   15.34321771593035
C        23.96908345618788    3.25028615290950   16.69163578312404
H        24.64572976275669    2.69784624768216   17.30927384987598
C        22.76964428647298    3.82973528867794   17.08464482608980
C        22.22404952823368    3.78452217737088   18.46396533955353
H        22.83437130915404    3.11069714525154   19.05927660021933
H        22.25018002633955    4.77114329746377   18.92760248343836
H        21.19640846098251    3.41777807605216   18.47862330598705
C        25.21947229496080    3.13928011583196   14.44287291558492
H        25.71109297498089    4.01611275726423   14.02667764253070
H        25.94927861846067    2.56231396180109   15.00300134663746
H        24.85155261684998    2.53261762447065   13.61813224967596
C        23.04135834722596    7.35782774126803   13.10095371209778
C        22.45523897388797    8.50542132092485   13.62691021173342
H        22.66523598720545    9.51768693636858   13.35024586559303
C        21.54378395117802    8.07190683620429   14.58052399993797
C        20.64252092724366    8.87017449255444   15.44340906292199
H        20.59762844959454    9.89554337353491   15.08779662782253
H        19.63525681741395    8.44348635571718   15.43630709318479
H        21.00482789063214    8.87675656314792   16.47492207324491
C        24.07659500571383    7.25370378315678   12.04805765186633
H        24.35788315952926    8.24729619881639   11.71275547642720
H        24.96116825556781    6.74629530695781   12.42780364047246
H        23.70436713619343    6.68743524364576   11.19667386488350
C        21.01788161133198    3.56702354514127   11.99701202598603
C        19.65415330086863    3.31290909657565   12.07558937085880
H        19.04503684881642    2.83925756242618   11.33419419579898
C        19.24067709802361    3.80146331844629   13.30935132599991
C        17.87976455715934    3.81752380602452   13.89255488683644
H        17.14193918890107    3.63399712708966   13.11673398448282
H        17.77905735432666    3.03944359949617   14.65332043056244
H        17.67959563592070    4.78657816640286   14.35880483305373
C        21.94980175901919    3.25331062869928   10.88975021295843
H        21.42364976532721    2.70213063549781   10.11633327508706
H        22.35306746228943    4.16606792945717   10.45532017221977
H        22.78406780939543    2.65310088019617   11.24623165274522
H        23.57778175912224    4.55886740415823   12.79776231148827

