84
CSD_code = YUYNOX | q = 0 | S = 0 | Stoichiometry = C43H33N3O4Ti | MND = 6
Ti        6.20189511453093    2.84781757209777    8.90673031408093
O         5.47589065678273    1.41520565139470    8.13320211644877
O         7.45325234912631    3.49405739417622    9.94405153084795
O         6.42414686770808    3.96266577140159    7.53578890039502
O         4.68520309604927    3.42263450403823    9.58192609430967
N         6.41204989052223    1.09666875804962   10.68714302579789
N         7.98432873485362    1.69988806752546    8.02203060237745
N         5.94449351480880   -1.67967113471539    6.36386680249668
C         6.80365837274795   -0.10340338175081   10.25641876489884
C         7.89724173711022   -0.76250993148860   10.81285470342392
C         8.56269044124327   -0.17416358019479   11.87503528978528
C         8.11991400579386    1.04792373707482   12.35069494824449
C         7.03794752584341    1.65812610358203   11.72189357887211
C         6.01529223697293   -0.70251147297774    9.13568212518842
C         6.10143475247520    0.23710717530337    7.88042178555466
C         7.58877048539883    0.49105842536778    7.63728656223560
C         8.47134343812269   -0.44895607013293    7.11228466355934
C         9.80218333006368   -0.09961787770814    6.97385843962143
C        10.20925608278399    1.16786784428986    7.36809021752049
C         9.26080847884493    2.03326699853640    7.88680158218764
C         5.46058563991442   -0.48991680048665    6.70127439482686
C         4.38627399312414    0.09613306329499    6.04166456328259
C         3.81773917141713   -0.57615867115280    4.97477960521573
C         4.33209737276953   -1.81117423771238    4.61009313836843
C         5.39214312564329   -2.31611528733821    5.34430959364518
C         6.55625668535203    3.01974343967189   12.09593009066784
C         7.35950886694661    4.03480529054847   11.20850976820783
C         8.76020039727280    4.31673731192212   11.76129736305466
C         9.07338098743844    4.36423850203775   13.11387020641548
C        10.36118133780542    4.65776661395001   13.52954080686997
C        11.35578920301385    4.91896125476302   12.60429773620642
C        11.04848163931127    4.90034070409167   11.25470218670547
C         9.76236865342698    4.60785557882236   10.84270673061653
C         6.64936086699324    5.39217997437091   11.18148885620631
C         6.14554795993064    5.98257412033444   12.33412895284761
C         5.53617902416981    7.22362792190868   12.27651922797953
C         5.42545923311082    7.89240132876759   11.06996895701447
C         5.93486370799009    7.31522185820245    9.92025671686735
C         6.54820521491615    6.07560110001406    9.97478704271209
C         5.51452127376519    3.74988714076330    6.59339753584875
C         5.89392872396607    3.14029868388611    5.38923739320515
C         4.97829958406933    2.92191869790536    4.37879164016473
C         3.65824130597274    3.30833949965674    4.54835916310098
C         3.27188966163830    3.92766143894003    5.72408533655145
C         4.17491179004808    4.16994624086662    6.75694216390501
C         3.95713041283757    4.48348308128141    9.28303701734603
C         3.35279504066324    5.19704006670237   10.32991995444516
C         2.59480505762643    6.32502145015592   10.09904182284940
C         2.40274176654974    6.77104853156548    8.80260736962942
C         2.94779166779199    6.05505977613028    7.75315287242406
C         3.71228953074914    4.90797966425405    7.95331204809855
H         8.20650744400214   -1.72206007315254   10.42721753570490
H         9.40951603871215   -0.66599772487165   12.33163958281863
H         8.60804066220826    1.52806591797025   13.18438996830005
H         4.95789921922734   -0.74212947981923    9.40964281793334
H         6.37422150919305   -1.69782778950568    8.87564073922351
H         8.09868320328767   -1.41473671951144    6.80945803818467
H        10.51282711022875   -0.80304173078627    6.56452599300287
H        11.23849453445806    1.47672864870406    7.27341383922600
H         9.51986915605453    3.03377852602405    8.20915695855452
H         4.02506764257148    1.05531870133028    6.37807158772940
H         2.98693363657872   -0.14210766241371    4.43822593156311
H         3.92057735845233   -2.36970561068001    3.78376774005339
H         5.82737036806537   -3.28021909649138    5.11214732300931
H         6.67995541542284    3.21064937377402   13.15891995038379
H         5.50502364832424    3.10963295125040   11.80591677609174
H         8.32222079567400    4.18120584444947   13.86730710482657
H        10.58686615623480    4.68449937319778   14.58610796503256
H        12.35935037051716    5.14491641976860   12.93346321040546
H        11.81212617321575    5.12043241343898   10.52252471506784
H         9.50485616977415    4.60584686036753    9.79343431480586
H         6.22234206939957    5.47982190537081   13.28655566202727
H         5.14360625715151    7.66849704966179   13.17972682651327
H         4.94435998089526    8.85824290038484   11.02716665884070
H         5.85212974802913    7.82928307125089    8.97404698873197
H         6.95007456769664    5.62307276399481    9.07486050813536
H         6.93109361017861    2.84410315026822    5.27788612564440
H         5.29282767313411    2.44458861508135    3.46128901076754
H         2.93397815269567    3.13232679203186    3.76653001605875
H         2.24095425574436    4.22604928805743    5.85618438438503
H         3.51313451080021    4.84034626689344   11.33856027611900
H         2.15779918461201    6.85760821945930   10.93126197708996
H         1.82432438182645    7.66202462847821    8.60877683432803
H         2.79019898762961    6.39642431403622    6.73921033632313

