53
CSD_code = YUYRUH | q = 0 | S = 0 | Stoichiometry = C26H23ClN2Ni | MND = 7
Ni        7.38824788066303   -0.06347332601452   14.09112642448658
Cl        7.76849242966252    1.88958043214347   14.71373455426715
N         5.13891933450074   -0.08522426729340   15.90137554987716
N         6.95877052251934   -0.81140863553583   16.84626898535883
C         7.54430328880554   -1.94255615135359   13.25554991184210
H         7.37601220969165   -2.91505693079863   13.69572801571157
C         8.79720167954817   -1.32461671126071   13.07853529821370
H         9.75293774354745   -1.69574823223580   13.41291463802817
C         8.56535050678307   -0.14221009303878   12.35162081543583
H         9.32675616197904    0.53900373585778   11.99958623773466
C         7.19790325702481   -0.13081018765133   11.90509749669283
H         6.78051898255941    0.57406008427805   11.20364102056537
C         6.56680124722929   -1.22954506850985   12.46227363251204
H         5.56295385177544   -1.57267308169067   12.26732345883357
C         6.43954900461040   -0.37063696634888   15.68121718889057
C         4.81438573948247   -0.34532325080682   17.21278140949190
C         5.99076850674777   -0.81355761354502   17.82363417495741
C         8.34835104949545   -1.15878945579205   17.04536200403578
H         8.85602030331145   -0.96288490908315   16.08492782742093
H         8.42890336869359   -2.22517386059347   17.28244171148027
C         8.97038520732187   -0.32369631327794   18.13472419604949
C         8.89350093704074    1.06195804896505   18.06389148125485
H         8.41521540054881    1.52859864481345   17.21457149415540
C         9.44667562128455    1.83707883544756   19.06670688309061
H         9.38420631178448    2.91292271060659   19.00465107359273
C        10.08317089854251    1.23822404050896   20.14138193444109
H        10.51522641633985    1.84518738811141   20.92322956920781
C        10.17059449133933   -0.14140932757546   20.20939030646804
H        10.67155627515060   -0.61347553819719   21.04190166757989
C         9.61285664692151   -0.92050296025882   19.21041487218389
H         9.68379786704196   -1.99848777240824   19.26572007506844
C         4.24425263805109    0.47882409400551   14.91474188300496
H         3.46214086663362   -0.24871882237013   14.67149165949389
H         4.85467180743209    0.66618017863214   14.01458755971192
C         3.63549281408012    1.76924843824712   15.39911759532471
C         4.46234920417085    2.79277803022886   15.84596392220343
H         5.53494246836404    2.66613201758343   15.81267311858049
C         3.91165181158060    3.97453243063356   16.30729437459362
H         4.55973656343249    4.76602990484742   16.65177729010924
C         2.53721036850181    4.14610641420673   16.32091251960724
H         2.10914436827797    5.07013397680190   16.68046959059560
C         1.71145715837881    3.13288409331750   15.86560255132173
H         0.63919635127298    3.26392379710145   15.86711805732449
C         2.25893658436091    1.94637071507636   15.40907957388952
H         1.61114611780994    1.15631499808704   15.05342394587678
C         3.63007110386587   -0.23198019769578   17.92594214050245
H         2.72782794547652    0.13385756261292   17.46415108614114
C         3.66092120434131   -0.59671747399708   19.25785143703399
H         2.75956630405119   -0.52008387990214   19.84619682008613
C         4.82834531472293   -1.05973967692255   19.86383209793258
H         4.80529391439440   -1.33099707382628   20.90805016620703
C         6.01207895863179   -1.17747831389168   19.16184002389907
H         6.91453299021289   -1.52725448023054   19.63555867763214

