60
CSD_code = YUYSES | q = 0 | S = 0 | Stoichiometry = C26H29ClN2NiO | MND = 7
Ni        9.61708074413879    4.56031314108219    4.63071262219394
Cl        9.47900061497931    3.58505669786698    2.79282820460812
O         5.80055507869011    8.01081385232231    4.03273604554428
N         7.41100166471338    6.43135327336223    4.51828702233311
N         8.86637717919833    6.76278421176606    2.93948257756666
C        10.23171538044502    5.07269970630243    6.53990603951235
H        10.20717115700637    6.02105713519074    7.05859665405816
C        11.35684260998763    4.53049881013854    5.87051505437900
H        12.30720681456773    5.01395740175288    5.70958031954466
C        11.00475633707391    3.23125649580330    5.48637144286262
H        11.65238648060912    2.51768605692601    4.99834454621482
C         9.73243672095130    2.89943803795079    6.08425792526666
H         9.28471993332825    1.91883931559021    6.07435600081767
C         9.27051710552182    4.01817864616767    6.74919598558793
H         8.39658768889850    4.09122338723437    7.37370423787911
C         8.61718388631344    6.02043348709073    4.00801388986988
C         6.84293134194794    7.46176206126084    3.79759226260167
C         7.82363515047394    7.72589542839757    2.67374666515960
H         7.35408115993002    7.56396407229779    1.70073959876639
H         8.20352452141840    8.75126154292850    2.70245220551181
C        10.03797977313671    6.71585403169596    2.12971665638021
C        11.22551646515739    7.24717583904172    2.63604880433599
C        12.35934165082887    7.21640634093709    1.83961889012310
H        13.28441987500998    7.61831080760931    2.22738027788498
C        12.33002279663635    6.68080352424417    0.56063783737131
C        11.13061363295267    6.17831642054370    0.07780214301518
H        11.09650369333591    5.75802783000919   -0.91656370640183
C         9.97272834828706    6.18624424688616    0.84027782145744
C         8.70091341972295    5.63120994524736    0.27854963735771
H         8.14757936095061    5.09646218141457    1.04583143704423
H         8.92588505215059    4.93285688522218   -0.52197954004589
H         8.07967039197936    6.42689576421183   -0.13564968448113
C        11.27022541508083    7.84914763290541    4.00869584179078
H        10.56377674164622    8.67501972477911    4.09670400379330
H        12.26658433087215    8.22187403213549    4.22958996290575
H        11.00624798738651    7.09635626747383    4.75320784717307
C        13.56778674840861    6.62543464747068   -0.28026742103269
H        13.34088796889110    6.86278702434553   -1.31735620933440
H        13.98648923177284    5.61955045279083   -0.25211445190425
H        14.32118352684615    7.31841662491264    0.08556476655381
C         6.79329700129561    5.89563910599950    5.68949291534869
C         6.83294921914730    6.63938016570569    6.86687000031054
C         6.21797296985424    6.11684064359970    7.99451009875542
H         6.24580960451347    6.67933631848822    8.91673576525826
C         5.57057977603746    4.88969746886900    7.96288998398811
C         5.54171739403212    4.17823997640651    6.77120880120329
H         5.03984896353220    3.22211467020074    6.73665222990411
C         6.14461427488963    4.66302241950482    5.62063114500132
C         6.12407917496028    3.88393105772547    4.34484894264711
H         5.72412411890027    4.48583133376291    3.52965976755064
H         5.51990201283106    2.98762174942342    4.44919604482635
H         7.14303750579205    3.58598824067179    4.07213310109652
C         4.89363559154366    4.35138075866976    9.18610402414448
H         5.35679332560289    4.73856087190750   10.09050120313868
H         4.93258574999456    3.26471658565686    9.20477091010034
H         3.84507482750945    4.65030614855499    9.18862208610109
C         7.52008339806300    7.97022801579714    6.90827338370190
H         8.50048138512344    7.91724561954331    6.43543241011959
H         7.64296758670930    8.30568071103315    7.93467271933391
H         6.92557813842225    8.71091515316126    6.37308025320217

