46
CSD_code = YUYTOD | q = 0 | S = 0 | Stoichiometry = C15H22BrMnN2O5 | MND = 6
C         5.09357901099570   -1.54362406690981    4.11029470575424
C         5.15015507247364    0.52435772659364    2.67238862052541
C         6.67544690163586   -1.48906247696339    2.03920814867071
C         7.63593848248883    0.83398056506204    3.02344167200221
C         8.82608890618019    3.00874161378408    2.48919375113903
H         9.43100062504056    2.90230924834730    1.58226027496064
H         9.46402282529311    3.36850041906480    3.30027015552826
C         7.65088459041367    4.01350598950888    2.26372650568036
C         7.03423982927508    4.38352013691101    3.61408843139334
H         6.18430762424491    5.03939694611814    3.45172451288550
H         7.75956238311090    4.88806750400122    4.24563557925437
H         6.67695621280350    3.49434511036324    4.12626513330207
C         8.21023661571675    5.26222737950705    1.57424479219923
H         8.73062629457003    5.01464267851296    0.65154989133612
H         8.90766720293708    5.76526821737305    2.23815396205612
H         7.39385950699003    5.94265078155587    1.34548836803271
C         6.82544752059937    3.03335040204380    0.20459123275678
H         7.01530155718381    3.90038799712841   -0.43580812226238
H         5.90492820230093    2.55132461807632   -0.12095652611597
H         7.65023259285253    2.31882793286502    0.10156166400311
C         7.58124896931812   -1.37549303705083    4.61758561696528
C         8.66892002509996   -2.42018153393078    6.65740055203614
H         8.64619972658082   -1.66720932450515    7.45248568905986
H         9.69840602606904   -2.75882478294503    6.51639186772892
C         7.76067346415304   -3.63575485100172    7.02384239911391
C         8.11454337147224   -4.08615494598494    8.44527669006395
H         8.02963411117785   -3.26716026450648    9.15543796811078
H         9.13438961423393   -4.46015805322875    8.47017869135638
H         7.44135304418190   -4.88416481064636    8.74829073344860
C         8.01359024790605   -4.77131577120798    6.02781468711366
H         7.36646553006600   -5.60950129391102    6.26880997311735
H         9.04953523228476   -5.09678596908366    6.06392866052131
H         7.77327418137071   -4.43758188095594    5.02110619709678
C         5.82274884887292   -2.34327852059522    7.70537730339900
H         5.83894807896786   -2.64888584221190    8.75544611950191
H         4.78738382679449   -2.25750272026771    7.38130231538198
H         6.30073323862233   -1.36484091490975    7.60206968202209
Mn        6.39244567586156   -0.48273132263608    3.47998761717861
N         8.31826765888187    1.75812298606604    2.83126504669741
N         8.21728949752103   -1.82194600174478    5.48423229843568
O         4.23792692551634   -2.17264744806248    4.52947952467692
O         4.33257493384302    1.16240398816842    2.19543839389151
O         6.81526386930402   -2.13287665761189    1.09708462763325
O         6.59673929061692    3.40120432018448    1.54304834786390
O         6.39329172866812   -3.32040253675498    6.85989655455874
Br        5.99437092553600    0.96864846645686    5.57779968990580

