70
CSD_code = YUYWAR | q = 1 | S = 0 | Stoichiometry = C27H35N4NiO3(1+) | MND = 6
Ni        2.51868597445335    0.34745030745651    5.53010092136318
O         3.84163544659726   -1.49091567157759    5.07209722522134
O         2.04007035100645   -0.62254761617744    6.96884049104574
O         5.50620354994172    4.46777816439504    7.49980927195499
H         5.86354512866504    5.35972417535774    7.58846807749455
N         1.15419955032170   -0.76047324838090    4.11781761380489
H         0.25778976355876   -0.71183492006341    4.59973314909763
N         2.79873900134478    1.53038257059790    3.88870232382739
N         1.41750707342851    2.05094675662461    6.26808142203687
H         2.07619545668066    2.71773700058276    6.67365498681113
N         4.51701413603984    1.28411968236263    6.19906479970295
H         5.20057625399540    0.54185000685460    6.04172694218732
C         3.92072790352458   -2.12443053155014    3.85873440438679
C         5.14495282760092   -2.41962103621780    3.27649451456190
H         6.06083946002772   -2.18422001416401    3.80187765032036
C         5.19252913388965   -3.02335763243299    2.03157856019480
H         6.14697782089248   -3.25289135300569    1.58474253438022
C         4.01845924891237   -3.33013109011340    1.36781346640086
H         4.05147875580084   -3.79888021568380    0.39731932498908
C         2.79797735447382   -3.04646581312510    1.95791259750206
H         1.88416614109386   -3.31190370517703    1.44743073614632
C         2.72769286213664   -2.44885689221553    3.20718314964218
C         1.41356743481806   -2.19035847525693    3.88947927868321
H         0.60870997603916   -2.63616256169949    3.28794022349691
H         1.42929799997939   -2.66643454425214    4.87405760027322
C         1.10275694103470    0.02556748596887    2.87852623227699
H         0.28253931399533    0.74499007837611    2.92305461742691
H         0.93396660268885   -0.61979202441245    2.00810419939976
C         2.43178685288608    0.76112557195559    2.68854495641758
H         3.20544332341907    0.01282435700054    2.50847599892941
H         2.37947768232080    1.41442506898763    1.80651921885062
C         1.96913778526560    2.75446624730595    4.00500749723207
H         1.53123936999172    3.01047636684984    3.03416416159549
H         2.61290529771405    3.58510336287146    4.30010656980620
C         0.85545532245993    2.62874586483798    5.05185375990542
H         0.41310363544265    3.62135477588414    5.22688146942756
H         0.05873529967811    1.96764275538531    4.70294548732719
C         0.44149455095435    1.71123775584209    7.30849516075239
H        -0.28713180463870    1.01848903061037    6.87027706870789
H        -0.09165356687308    2.60190282807362    7.66883737115332
C         1.14892312416488    1.03243985034070    8.45156776962120
C         1.06481094948761    1.50666317359435    9.74441785434786
H         0.45488816451155    2.37425688357137    9.95267824166895
C         1.73917486310367    0.88033930984670   10.78286821104309
H         1.65485125384538    1.26139445297989   11.78790676890665
C         2.52068504650172   -0.23416124691586   10.51908949391601
H         3.04186308846540   -0.72930494651322   11.32431988562871
C         2.64857502300026   -0.70526008500641    9.23110120512383
H         3.23393312148110   -1.58662421475697    9.01581836257419
C         1.95894633307049   -0.09993337319950    8.15694256739418
C         4.22774177701228    1.88159460486055    3.83526705926766
H         4.41056268341728    2.66649129773477    3.08884929157435
H         4.78033028808807    0.99111717995392    3.52515667137801
C         4.76611045951037    2.32637627921247    5.19618573759213
H         5.83670457845947    2.55091131252337    5.09284423765668
H         4.27728397908951    3.24215246505146    5.53545412868733
C         4.73625214034184    1.76016211213577    7.57502239341980
H         4.48072800795925    0.94259096671108    8.25323837323898
H         4.06035008606000    2.59433982428532    7.77074952356290
C         6.15609258327565    2.20549728781878    7.81627526799141
C         7.15621149549453    1.27708810555166    8.06735241963283
H         6.89456923492754    0.22967907469980    8.12098227717657
C         8.46613253139515    1.67148735402923    8.27056939564969
H         9.22926305591142    0.93596899748598    8.46897969150338
C         8.78843673210658    3.01696505147491    8.22893787833078
H         9.80495799562793    3.33794453360718    8.39312022292962
C         7.80656961740477    3.95792160830534    7.98063875645078
H         8.05663433052120    5.00963231119105    7.95209666945626
C         6.49287288713759    3.56069668968728    7.76712684521806
H         4.65194935706446   -1.63468972894437    5.57478776433174

