49
CSD_code = YUZGIL | q = 0 | S = 0 | Stoichiometry = C16H17N7O8Zn | MND = 7
Zn        0.14561627324803   16.22212769831638    1.61775559717872
C        -1.36470584960576   13.51043786661030    2.40657038599721
H        -0.57564730153076   12.86201190256221    2.07846355876093
C        -2.59609094943984   13.18445163793367    3.00310112243943
H        -2.96369664706592   12.20824155152292    3.24168471091191
C        -3.21854339613264   14.38691890613491    3.21135391670914
H        -4.17190694098558   14.61265652103770    3.64305964507215
C        -2.53132825024781   16.72893279967040    2.73230640902033
C        -3.65156233315652   17.43637875549462    3.15427221511990
H        -4.53563291092505   16.97121462575080    3.55813817679177
C        -3.61021013090311   18.82365167000080    3.03583471149283
C        -4.81805437086795   19.59251421098757    3.48358310916455
C        -2.48872951081847   19.46709382003576    2.51822523113566
H        -2.47175420250607   20.53945103666786    2.43065816466721
C        -1.42260835441760   18.66087055326491    2.13115223050645
C         0.19964052814186   20.36134094756630    1.31288541205317
H        -0.41115423443969   21.22402396662960    1.48257174203655
C         1.46701174062116   20.25512283992740    0.80368634025575
H         2.10582565961144   21.04586684302680    0.46945778797474
C         1.74814433898155   18.87716622100168    0.81419681068522
H         2.63548234591795   18.36221282613935    0.50091470662030
C        -5.78663554229054   21.72601482955664    3.66374206883155
H        -5.79857609429257   21.81387284036506    4.75560093551317
H        -6.71377745702791   21.23621639754632    3.34804245143861
C        -4.23913596352607   25.19220183321902    2.85195020454581
H        -3.37881994498014   25.72143909242958    3.25363871607712
H        -5.12053411878077   25.81291212578018    2.99482108454282
H        -4.08914951289491   25.05327118919448    1.78362690343877
N        -1.25767977409543   14.81094224935082    2.26837205336331
N        -2.38295193066106   15.35219410946327    2.75583981153524
N        -1.47658693784882   17.35059446065477    2.24722022913567
N        -0.22185602523403   19.10567255547361    1.60066488373579
N         0.72576216412597   18.20933505532686    1.29414056664227
N        -0.35122967842151   15.77423022705832   -0.79732943419465
N         1.60321611709909   16.03406691867092    3.63329513796124
O        -1.09538563526833   16.60795847587004   -0.26259422423619
O        -0.47389557910436   15.45697947460207   -1.94546849423114
O         0.53924181064452   15.26894210116689   -0.07863294946679
O         0.48039321812752   16.51574101193417    3.83952719964838
O         2.40646730200447   15.89733975788828    4.51067529360265
O         1.86675983326815   15.69983395127656    2.45748306410564
O        -4.68066342587783   20.89622326908886    3.28842822428212
O        -5.79225415142046   19.06661952928275    3.95723848091320
C        -5.62048710084564   23.08683358572183    3.00461055704554
H        -5.50878715031643   22.94512225480378    1.92805562135764
H        -6.53023702454493   23.66318088296938    3.17856153496793
C        -4.41389213279467   23.84927616916981    3.54926382573410
H        -3.51648795366248   23.24392528338966    3.41025279126673
H        -4.54391281486019   24.01007316846237    4.62150147785105

