99
CSD_code = YUZYAT | q = 0 | S = 0 | Stoichiometry = C36H55ClNiO4P2 | MND = 4
Ni        6.67798717868736    6.59216912437748    4.59905142654462
Cl        4.58123493162053    6.86880455275748    4.92882650998422
P         6.34063481741003    7.31797221617591    2.58227218051405
P         7.00221631552054    5.85347920887708    6.61311338110483
O         7.69580654956485   10.20489957727273    3.01743109291709
O         6.44882926445420    4.79341015452842    1.38322099601789
O         6.99664504367557    8.25235717655305    7.74579120928499
O         5.57253603093749    2.31051371939896    5.33775097430884
C         8.99866664577981    5.06635951098684    3.95296949089937
C        10.35446718560388    4.87267540445105    3.73758287422367
C        11.23804717749060    5.93175639174115    3.84834012521192
C        10.75767730561011    7.18789479497018    4.17482069692009
C         9.40308840514471    7.38286313950755    4.38854219348591
C         8.50145339825369    6.32649976557080    4.27838572833081
C         7.72564901891264    7.51762359827277    1.36176496231367
C         5.64868123098595    9.02934569064722    2.68605654654763
C         4.94404078573024    6.57484825036882    1.62669096394106
C         8.65954591519977    5.85360711667017    7.45758832600469
C         5.76832517594683    6.28218520542805    7.92046445847793
C         6.71968545722465    4.02686811115054    6.53446704803282
C         7.30806578382963    8.04115188921988    0.03235738472865
C         7.32257529518881    9.40752152461118   -0.22974556042481
C         6.92158063816057    9.89301860440318   -1.46190086288185
C         6.50262212354835    9.02056523014538   -2.45228045069076
C         6.49621951239480    7.65765611655582   -2.20595911993917
C         6.89655547361693    7.17235907994581   -0.97402102186849
C         6.46538470444269    9.89937697060438    3.62624605815341
C         8.48025616641568   11.12034078365997    3.74539411735066
C         9.82243180139102   11.27103781029074    3.04742869829438
C         5.09085282895383    5.06509881156511    1.62679739551370
C         6.77583226322870    3.42115633678221    1.37084227525952
C         8.19936631437907    3.26368217849450    0.85991748183229
C         8.64097350993645    5.27804499580763    8.83202244049506
C         8.88979581300510    3.92776682760886    9.05234314628158
C         8.85416376865665    3.40187645499474   10.33172565881714
C         8.57124998817997    4.21803686028948   11.41351467454478
C         8.33277921793206    5.56674335415167   11.20812325554778
C         8.36842337490464    6.09074094581740    9.92881831540702
C         5.68186512678922    7.79744232127957    7.97938928257309
C         7.13741081810602    9.65359926075654    7.72105865057979
C         8.61905536957880    9.98786604510295    7.63965345674672
C         5.60372455949950    3.70129862535949    5.55402598704090
C         4.47369246878070    1.89087498872186    4.56157188218160
C         4.55520249056675    0.38517607040561    4.37221020645681
H         8.32810404052763    4.22047718937298    3.86543962729274
H        10.72276558814493    3.88613890743346    3.48807336987302
H        12.29491024677965    5.77846264904780    3.68305404328783
H        11.44256936906375    8.02058367808261    4.26619564365468
H         9.04766089517610    8.37416260552376    4.63874273305164
H         8.42490070060446    8.20252587344589    1.84468159982770
H         8.19093146299148    6.53617756070695    1.26900522977029
H         5.61107788772408    9.47698472591162    1.69096544071889
H         4.63751240877456    8.94298858558748    3.08830865866942
H         4.00815763301351    6.85673248313795    2.11032452482176
H         4.97063091309452    6.97179930364259    0.60968915878247
H         9.31881155836449    5.28196583032305    6.79933719232215
H         9.00075607838613    6.88796464130790    7.47672465988150
H         4.80461195845288    5.85481969518303    7.64297555713561
H         6.10230171009950    5.86142785158055    8.87145806775984
H         7.63386058975783    3.55184321726731    6.17284841811652
H         6.48980051697740    3.62929073558190    7.52594166729813
H         7.66098870813599   10.08428782158055    0.54091842954952
H         6.93846156832058   10.95668328048875   -1.65289394251688
H         6.18936792443145    9.39999367059847   -3.41396049925269
H         6.17966944025489    6.97155162516758   -2.97883063956074
H         6.89959124775757    6.10997733193630   -0.77959644803550
H         5.92342823550409   10.83089339959556    3.86222478956747
H         6.63201981087753    9.35055038903010    4.57385241211962
H         8.62358310322632   10.76034094319848    4.77579687366919
H         7.96240161044200   12.09234165630027    3.80290814392645
H        10.45024163822845   11.96861436866849    3.59479590873252
H         9.67635163883786   11.64063129670399    2.03611455849838
H        10.31976493775388   10.30621510852747    2.99279780175361
H         4.79079639536688    4.66211930825143    2.60582979898766
H         4.45830492581287    4.59283838313045    0.85681852490138
H         6.07440345857513    2.88079612687405    0.71481396039090
H         6.67988243580154    2.99953803329117    2.38330642033106
H         8.48908377500122    2.21685182966783    0.88675914753148
H         8.87925375677375    3.84173233080192    1.47931406463011
H         8.27129234108248    3.62594690293652   -0.16249730784682
H         9.12486701964119    3.28531822243352    8.21626761190566
H         9.05063378185785    2.35070173016938   10.48515983965366
H         8.54315386074178    3.80701958469508   12.41180695429142
H         8.11996699870287    6.21157140041338   12.04877852415130
H         8.18554227393275    7.14234232520522    9.76541529289656
H         5.00857333435305    8.17013231848324    7.19600258363801
H         5.31886613805607    8.15519298882352    8.95539899355638
H         6.69969364469227   10.08535626094172    8.63499666327514
H         6.59467782384118   10.07274091891047    6.85919599031420
H         8.75704004228019   11.06191505698764    7.54832233683555
H         9.06042749043605    9.49170160169292    6.77894530160762
H         9.13162535180684    9.63951901421936    8.53292942535681
H         4.63219615640518    4.05061992055662    5.93338933607655
H         5.79784088026512    4.23330171657058    4.59929109987657
H         4.48727176466353    2.39996697927224    3.58364804054593
H         3.53363603063350    2.16595038770619    5.06599475762720
H         3.71253404318639    0.03917229696597    3.78024780590505
H         4.54128473334266   -0.10873041296600    5.33963498887411
H         5.48052087602264    0.12509355218168    3.86527232710627

