97
CSD_code = ZABGIS | q = 0 | S = 0 | Stoichiometry = C34H57Cl2OP2Rh | MND = 6
Rh        2.59755147387256    2.62851016033968   -1.52162325180820
Cl        2.55947914789204    0.37215079440047   -1.05728386599122
Cl        2.88435403630887    4.88933420080501   -1.88419697582426
P         1.84358264854541    2.81878867639573    0.64106320238975
P         2.76673891911485    2.53817661636246   -3.81811424470586
O         4.93793943266387    2.63349333920067   -0.93908823086433
C         0.62241865694916    2.74541891418276   -1.92901856134009
C        -0.31182200507360    2.50981425779203   -0.92072138494260
C        -1.66756420487087    2.64159662170242   -1.18817819581402
C        -2.10219469942640    2.99342778620015   -2.45255586182453
C        -1.17819239614768    3.21281831811662   -3.45612649015942
C         0.18327154888093    3.09528810491136   -3.20379228112295
C         0.17670271712138    2.06598011647705    0.42650379115026
C         1.18939434501360    3.37282373781297   -4.28233530106886
C         5.88564261777290    1.60439109782155   -1.16757934747915
C         7.14857235582598    1.82041398855651   -0.34630018960490
C         2.55841953896849    2.01900500515042    2.16903372456545
C         4.07177344539210    1.89129914874359    1.99645825957131
C         4.71807076215997    1.33137541441933    3.25868651332592
C         4.12198718536767   -0.03322075197909    3.58718765416256
C         2.61069697721372    0.08130331797379    3.75419081406903
C         1.96350533131594    0.65019942654089    2.49213676863120
C         1.47024754334508    4.56054480139268    1.17494652096455
C         0.45082500317096    4.71712021331967    2.30018729222737
C         0.20961103087005    6.20115528526602    2.57594542525768
C         1.51108174341613    6.91050413913628    2.93487821367192
C         2.52767507019693    6.74561990081973    1.81018759524043
C         2.77759733155946    5.26589556616322    1.53869203161405
C         2.62715992374990    0.92392611839530   -4.72767576622227
C         3.85047279295957    0.05691561270212   -4.43365578441659
C         3.75023052126677   -1.28681039497613   -5.14881786692439
C         2.47710705523337   -2.01259857802321   -4.72871577239736
C         1.25787443058615   -1.15292552661847   -5.04383400816954
C         1.35201486979605    0.18646712327867   -4.31829397517280
C         3.96364572044961    3.59066888218027   -4.79553365948257
C         5.41312946957980    3.46847864162991   -4.33494894495913
C         6.27702008684166    4.51195011902803   -5.03942423304215
C         6.18018063638339    4.35766738725247   -6.55396222877469
C         4.72684865063983    4.46051964743651   -7.00634571846396
C         3.87620487027107    3.40114612353711   -6.30736644695432
H         5.34150291532921    3.49509296451141   -1.11873687361707
H        -2.38305125751503    2.46148980714536   -0.39799387615791
H        -3.15801301415302    3.09366977126739   -2.65537001982350
H        -1.50907631663963    3.48397013615343   -4.44919600280031
H        -0.52030646775268    2.30821627304738    1.23052439795450
H         0.32258437244362    0.98127971450473    0.39942461390574
H         0.83065292532536    3.05640356883185   -5.26585083539840
H         1.38905953391860    4.44966721571094   -4.31221392058770
H         6.13448514984103    1.54344206680761   -2.23576116592373
H         5.38661047795984    0.67633094229136   -0.87908175397895
H         6.90366952067640    1.88978924268759    0.71062966237891
H         7.83092014043861    0.98843257214252   -0.49422183611750
H         7.65024631921127    2.73861363320338   -0.64964016871609
H         2.34754405891286    2.69837677848727    3.00532054687017
H         4.50281266903939    2.86428464285801    1.74637871455781
H         4.25998934191964    1.21350061756749    1.16252928620714
H         4.54681226332093    2.01558713536395    4.09449426493796
H         5.79807661265885    1.24267498503600    3.11851090151100
H         4.57030878816818   -0.43015374535973    4.50069711441149
H         4.34192438782700   -0.72747493960582    2.77354878363165
H         2.38855961286035    0.73431950647184    4.60297391607253
H         2.18461267698995   -0.90079933449856    3.96930430883292
H         2.14169008297680   -0.02806804160813    1.65546698756532
H         0.88664938311117    0.73051075131278    2.65326404855380
H         1.06530319729504    5.03404500517742    0.26957636687950
H         0.81248069814130    4.23754161360752    3.21328000850003
H        -0.49913254206231    4.25514852474567    2.02685783972553
H        -0.51247275936264    6.30972092608406    3.38887980602085
H        -0.21775703008119    6.66419632956312    1.68367720217187
H         1.91569512885176    6.48408822206447    3.85666770255689
H         1.31850880546791    7.97020334631656    3.11459346601501
H         3.46569451732513    7.23704035421282    2.07775057004675
H         2.14980572609615    7.21632856623110    0.90067512404793
H         3.48490459309299    5.15767801562193    0.71323911772032
H         3.21234407159461    4.80793801696860    2.43119027686531
H         2.57570102350849    1.14652174713074   -5.80140513023083
H         3.90602173240481   -0.11072442105184   -3.35555004630521
H         4.76259907954423    0.57154529949170   -4.74774978422332
H         4.62508968722938   -1.89619290680999   -4.91147656391083
H         3.73789413584650   -1.12576505382561   -6.23086840686130
H         2.51101961717915   -2.20346577221776   -3.65463718246944
H         2.40496530016826   -2.97271781568197   -5.24446080377762
H         0.34686884167795   -1.66959063511456   -4.73576592744341
H         1.19912028620181   -0.98455448999853   -6.12326808402481
H         0.46955343519839    0.78848365656597   -4.54496949267400
H         1.36772878595173    0.00871354809888   -3.24204257945098
H         3.63851051112285    4.61097501549930   -4.54929570533560
H         5.80187358834108    2.47013396568489   -4.55027004322324
H         5.45378556965196    3.63599913173410   -3.25792257145267
H         7.31717779608432    4.40980408132305   -4.72074201037079
H         5.93482967568815    5.50915700105058   -4.75374315000649
H         6.58246921287633    3.38447856389290   -6.84665708314216
H         6.77895038860874    5.12732585391394   -7.04506585887714
H         4.66335844151408    4.32916756146786   -8.08885015631521
H         4.34101210354101    5.45358541798082   -6.76559085162399
H         2.84070103941634    3.48204527365446   -6.64485504822728
H         4.25357658008934    2.41385643847673   -6.58281131424397

