35
CSD_code = ZABHOZ | q = 0 | S = 0 | Stoichiometry = C13H16IMoNO3 | MND = 9
Mo        3.18325214746706    1.09972581194006    4.82338989503373
I         0.87621993360347    0.01437177103826    3.49909466159933
O         4.79252751350530   -0.00226711672942    2.43846937588738
O         5.71276378204268   -0.47211360405916    5.59539272259092
O        -0.09266264087220   -1.85581955708760    6.77001951985312
N         2.71237692923353   -1.80649038033308    5.93361126259663
C         4.13210924102014    0.38491709295302    3.30208057399860
C         4.78222987874629    0.15942014651800    5.31771005982364
C         3.10570510960481    3.35651493168289    4.11183423341817
C         1.84333506434326    3.07416001198871    4.66098623719709
C         2.00514932660191    2.73403307756558    6.02388593514110
C         3.37919059267012    2.82069899506310    6.32561649525478
C         4.06555036921257    3.19225629633199    5.13351391851476
C         2.75120761688176   -0.50720196658092    6.10498518703282
C         2.39294236515246   -0.23230897120038    7.54205324676854
C         2.42888503015423   -1.59655257353699    8.24158778987328
C         2.23543627510135   -2.57339777675478    7.08288809938768
C         3.01246693967712   -2.53524287175474    4.73046190643577
C         0.75165851045458   -2.96393457872991    6.88463406639215
H        -0.00724727490503   -1.46268749567353    5.88952049308988
H         3.29154045197718    3.75610265021865    3.12266290293277
H         0.89338545977255    3.22297916900721    4.16171980999224
H         1.19747855931603    2.63138648747108    6.73870459661372
H         3.81990015668908    2.80341607642508    7.31491678682119
H         5.10629233388138    3.48566694097536    5.07541017275678
H         3.07458791943495    0.48470637616683    7.99962485983620
H         1.38063171962153    0.17981586727247    7.57684045239248
H         3.39712377998261   -1.75732074931616    8.71592839513220
H         1.64596691436004   -1.69609258872405    8.98896426167677
H         2.82424653028363   -3.48890753352917    7.19161692120648
H         3.56075628806179   -3.44125874233192    4.99184570187508
H         3.62422842833993   -1.92846466120155    4.06179112669944
H         2.09987045109299   -2.81520492900307    4.19880520017160
H         0.42140961897389   -3.51041638655922    7.77223046780512
H         0.66028467853440   -3.62988921951066    6.01720266418484

