64
CSD_code = ZABJUK | q = 1 | S = 0 | Stoichiometry = C33H23N2O3PReS(1+) | MND = 6
Re        1.77728632669857    3.44096350618750   14.79643943870681
P        -0.58133777405643    3.55832029927329   13.94938205852055
N         2.05393833364844    1.86500611887440   13.31892598665610
S         0.29016769766385   -0.83517817458270   15.67349148244873
C         3.60699595127972    3.16622289193141   15.44884358383438
N         1.10618088140113    1.61558967534647   15.80745159780217
C        -0.96133576448767    2.19286432815633   12.81254379727456
O         1.33912813191822    5.58908171015613   16.98889091897417
C        -1.95582348794676    3.49865856211604   15.14182978856676
C        -1.01954120559096    5.06857461025206   13.03433863117084
C         0.66433764567144    1.31388665763307   17.06540436183956
C        -1.72110104773307    3.67955594574243   16.49835479848877
H        -0.71154253338995    3.83614684376151   16.84880431137594
O         2.68518466624493    5.64892522602306   12.82874291037561
O         4.66082740408102    2.97919153944867   15.83240878251657
C         1.47569582664464    4.77822717136351   16.19289477910297
C         2.35338166241577    4.86736348595569   13.59139994860336
C        -3.26167127567418    3.33510869968615   14.68190541778877
H        -3.45373472809022    3.21482604373512   13.62490902695973
C        -1.59961392691373    1.03954005390488   13.26081838564108
H        -1.96548229611548    0.98523850243174   14.27808990217605
C        -0.50227326340569    6.27174210286359   13.50810604827001
H         0.17942789030724    6.26415387089190   14.35100766798665
C         1.00913090357949    0.58998925164688   14.99541457276461
C        -0.67801024526989    1.18394319352145   10.64770254251752
H        -0.32290639007616    1.24104356314920    9.62984508944952
C        -1.78555102695044   -0.02785909635168   12.40049725127468
H        -2.29095482368326   -0.91531253485821   12.75031260070491
C        -0.48382789087736    2.25124117895615   11.50384840994336
H         0.02949914308025    3.14171674686427   11.16285919439362
C         1.59308836032061   -0.43521173227796   12.80038971642368
H         1.17027225070427   -1.37535770697770   13.11751662281980
C        -0.85588439756009    7.46393102375259   12.90494215293847
H        -0.44932635645227    8.39293946623670   13.27333170504653
C         0.14183261982204    0.01028465417318   17.18741665994004
C         1.54667069732435    0.66307174218098   13.65627406738334
C         2.19283781303113   -0.29235457872164   11.56449508303000
H         2.24820345625787   -1.12559088518357   10.88243593368934
C         2.63473638049785    1.98746382363190   12.12895384338710
H         3.04540211236291    2.95963765675578   11.89019868164939
C         2.73156456022704    0.94214803896148   11.22744446266702
H         3.22162136931612    1.09625349082137   10.28031882182953
C        -1.32812254278824    0.04354621960000   11.09490942842273
H        -1.48097539163558   -0.78749784787635   10.42398266275747
C        -1.90755630046426    5.07055936063437   11.96345889640739
H        -2.32203756059172    4.14488615282608   11.58910215967240
C        -0.36745914475259   -0.45925297550322   18.38772180849990
H        -0.76899450934997   -1.45702723953953   18.46065748278352
C        -2.25265511919203    6.26757309996153   11.36192992890112
H        -2.93563190520790    6.26577917482136   10.52595427371918
C         0.72869202901409    2.13388969457668   18.19422614266485
H         1.19106887821090    3.10672961113409   18.12243271038825
C        -1.72848746325610    7.46206775847394   11.82829900998874
H        -2.00112152304007    8.39133923695043   11.35274122485088
C        -0.32772692028345    0.38289035641660   19.48000661665521
H        -0.71545510912646    0.04068054594283   20.42631161794779
C         0.22951186039082    1.65985093897173   19.38577567099870
H         0.27720052754394    2.28137547022106   20.26583210666033
C        -4.06899047880087    3.48599951284633   16.93784925923401
H        -4.89236282889498    3.47696869463266   17.63512117114214
C        -2.77508909252616    3.66674252425987   17.39510678385831
H        -2.58321571658550    3.80326708612448   18.44844560420964
C        -4.31015776082750    3.32641652297879   15.58097976592786
H        -5.32032757809571    3.19832913380867   15.22297463748576

