66
CSD_code = ZACDUF | q = 1 | S = 0 | Stoichiometry = C22H39O2Si2Ti(1+) | MND = 12
C         4.53252148767032    1.80384133397980    4.47815261625345
C         3.98583600857768    2.45847923826997    3.33954426080136
C         4.74995122398463    3.62603527189562    3.10093854787945
C         5.73701124895953    3.72368479262305    4.13202730022495
C         5.58703282011886    2.62596898397198    5.01654448450748
C         7.45912857109235    0.49800270756311    4.36272720993347
C         6.85707315239045   -0.38471267687795    3.40288934023343
C         7.46627707178306   -0.16459773705083    2.13699327972103
C         8.36019006249220    0.91793463001950    2.26419544650662
C         8.33135508071759    1.35541242724266    3.62377075953166
C         3.83246672593901    0.66802539329681    5.15927924649950
H         2.96108109228828    1.05267110524040    5.69381743644993
H         4.47719025683805    0.17628542143716    5.88062332958861
H         3.47407950376776   -0.06486239474781    4.43525863524496
C         2.72841778227774    2.04091216218612    2.63552978844874
H         1.87582839501581    2.21221428943158    3.29597614380738
H         2.73818657712103    0.97804788092570    2.38455032337396
H         2.56196244165320    2.62010972986508    1.72897756744053
C         4.44875149214219    4.67062482414310    2.06815290342379
H         4.09828334082402    4.22975322466046    1.13386861449684
H         5.32152972233678    5.28568228382379    1.85915477305528
H         3.66037216817349    5.32903053970709    2.43772877629631
C         6.61809643890439    4.91946396108756    4.32857065167321
H         6.98684586296586    5.30324672718847    3.37773943992517
H         7.46483086933222    4.68708489883434    4.96532119063521
H         6.04509864044111    5.71744361379416    4.80414427719815
C         5.95009899998191   -1.54976946888485    3.66047938126940
H         5.14143770033735   -1.57798907438443    2.92685649386997
H         5.52894090963308   -1.52045301270305    4.65843938556348
H         6.51517057929481   -2.47910444705958    3.56082660649539
C         7.22208789779516   -0.97062918013286    0.90174195954608
H         7.08979832925509   -2.02067220965363    1.15495894795977
H         8.05880047168555   -0.88244190911417    0.21303982221331
H         6.31855190993883   -0.62856694161168    0.39119497211963
C         9.34053272539642    1.34921679891457    1.20957333588485
H        10.09419566511392    0.56710029965656    1.09291167118293
H         9.87171449627599    2.25771732836443    1.49302744842376
H         8.86746936975426    1.48233861244145    0.23482393105154
C         9.27133203136779    2.38208708246959    4.18631768596621
H        10.28359485328238    1.97534977383801    4.23040429777593
H         8.97880812809460    2.66355685232318    5.19336730956054
H         9.30306799057357    3.28400881077843    3.57025523834848
C         4.80218666723204    2.20874426722917    7.97474458741367
H         5.11372316271213    2.49726620079453    8.97332827936840
H         4.39543944105210    1.20617958054622    8.04602045018840
H         3.99254282491100    2.87241204376463    7.68413454071492
C         7.32306885061337    3.78888311900301    7.45297928423168
H         6.76831969096326    4.72188568895797    7.43785643548928
H         8.26417148099484    3.95137625689954    6.93783033967661
H         7.56610630820991    3.57868088434879    8.48988085629561
C         6.81901372355311   -1.27633606940287    6.94983053615788
H         7.25123199759196   -2.13692934513970    6.44819330996110
H         5.73902911259159   -1.36380311102864    6.89228784975497
H         7.08195283737880   -1.35315472937090    8.00026462656087
C         9.37085632269923    0.31333922412868    6.77965492014835
H         9.47870052625647   -0.23113503870707    7.71204507379115
H         9.79890676018644    1.29732226919789    6.93663416858135
H         9.97808943813782   -0.19558026983122    6.03625712613320
O         5.48323653982417    1.39105060945110    1.39507379757647
H         4.61480021795415    1.56331667137719    1.02171238150590
O         7.15875749366324    3.38089669065548    1.64726353687673
Si        6.28616020493309    2.33320178679016    6.77184391989156
Si        7.52470833737932    0.36739232922947    6.27105298622297
Ti        6.20476734545735    1.77471980329883    2.96236190760699
H         8.07261387018968    3.36681670711808    1.32374734562989
H         6.60251674992899    3.05152248293658    0.91740690984313

