72
CSD_code = ZACHUG | q = 0 | S = 0 | Stoichiometry = C20H34CdN6O11 | MND = 7
Cd        5.25924820684597    3.61152885712745    4.30397583169324
O         6.89200980598250    3.57917189303421    5.73381752971225
C         7.47741347567435    4.50669987123146    6.30878410289880
C         7.12153428932454    5.96888717602092    6.29738775003709
C         8.37333606611068    6.64661286751690    6.85548426908805
C         9.04113865333684    5.54691524760537    7.68631350371370
N         8.54219824230731    4.32478362995492    7.08847859950816
C         9.17896897116382    3.04967975559215    7.27503790230477
C        10.47876065788415    2.94707235234363    6.44794446002121
N        10.27466423035079    3.29396168587664    5.07158152453306
C         9.63045728960481    2.41519710221099    4.11913152120629
C         9.89538941299714    3.10934285626372    2.78032446272070
C         9.97844672231562    4.58450356378733    3.16973832937746
C        10.46182415560319    4.55018317514134    4.60543427845662
O        10.93566204603617    5.46411476735262    5.24866455355440
O         4.73738884946759    1.24131247362369    4.14715735291163
N         4.35668059104218    4.34262260156515    6.31451723947391
O         4.36299783206729    5.11752033845599    5.34733425786355
O         4.23677003071895    3.13510231108478    6.10250117410269
O         4.43843724717556    4.76913005776624    7.43453555693860
H         6.84532757415949    6.29316839258050    5.29367567340910
H         6.25929433970277    6.11520511594499    6.95411053053769
H         9.04267630198676    6.93363219554936    6.04478972772261
H         8.14362077016160    7.52727985668415    7.44976373711336
H         8.74461894922863    5.58480570556779    8.74125436991818
H        10.12790704874087    5.59315104743456    7.61165097447224
H         9.40763075016275    2.90266991298847    8.33403217620808
H         8.46794797491915    2.28642465656941    6.94793033386536
H        10.87097358811218    1.92869231062556    6.51878359247464
H        11.22151742895323    3.64685471982172    6.84103891082845
H        10.06454702741552    1.41334093921875    4.17324099124115
H         8.55230607704226    2.34872602034021    4.31488473301885
H         9.11471728220250    2.90355884686259    2.05225971063966
H        10.85078446181171    2.77893631939123    2.36939078132818
H         8.99325006647592    5.05860662000725    3.16581220157141
H        10.63984182419653    5.17363031245280    2.53797714661999
H         5.53615020362850    0.97316671053571    3.67787591240040
O         3.93775048975919    3.71100434833276    2.67998756403752
O         6.41692031816864    4.90620760210576    3.16747366239795
O         6.58409226712977    2.80854069887795    2.87379321915959
H         4.85145868799624    1.01013928194619    5.07597628551257
C         3.52855927379056    4.60687256207822    1.93123002779729
N         6.49634967082360    3.94435039047621    2.39688571608390
C         3.87622047123997    6.07003465081870    1.97376298877422
N         2.70824495344267    4.38176125344111    0.90874301946815
O         6.54075800668237    4.11645225696644    1.20917994291411
C         2.78557976647536    6.71138568256521    1.11536883619876
H         3.91350415767037    6.43265998531394    3.00110750325215
H         4.86962841915962    6.19121375945410    1.53368350934273
C         2.35138447870447    5.57945792652284    0.17749193992214
C         2.14657805569166    3.08842114834639    0.62638439182453
H         1.94009938658330    6.99406363769525    1.74198567672447
H         3.13490784529109    7.58550606624480    0.57167929531040
H         2.89173872164252    5.60029676884063   -0.77643952254224
H         1.27798304112408    5.60229298518934   -0.01425218181067
C         0.75728458140317    2.93298408358316    1.28235439825447
H         2.06307100667739    2.95633015532610   -0.45462625570802
H         2.83194950893122    2.34123447025471    1.03533482022723
N         0.79795510440432    3.19472889677931    2.69179678792075
H         0.38416899984751    1.92093205601284    1.10566004895078
H         0.06367097813724    3.65747571395057    0.84568696038372
C         1.30711725548765    2.24262679280831    3.65666728367417
C         0.62621392510753    4.43798034918899    3.19459694658954
C         0.97965671720153    2.89977361412340    5.00099595650506
H         0.81464858195346    1.27533286305477    3.52566869426527
H         2.39017359673644    2.11234853552337    3.54464743799334
C         0.96767161547823    4.39151477798434    4.66911917418964
O         0.26103894533242    5.40148806131169    2.55081242645887
H         1.71660982145209    2.64473467017014    5.75903644780398
H        -0.00677132269536    2.58579045605422    5.34637311864806
H         1.96095864769936    4.83491445301511    4.78233438538758
H         0.26578558053859    4.97385677950193    5.26278379043168

