51
CSD_code = ZACHOD | q = 1 | S = 0 | Stoichiometry = C23H20ClN6Os(1+) | MND = 6
Os       17.44637183976873    5.75128876116132    7.56633332460213
Cl       18.29845588025731    7.93059055487847    7.14769047994563
N        16.32162396610564    6.25996149080511    9.15271538560802
N        15.75646266732537    6.28769085601043    6.42117830742087
N        18.60504268199938    5.22827690503188    6.01837616279338
N        19.15522137926490    5.39181908440950    8.52723573552222
N        16.66574980553773    3.97739534215834    8.02068298089820
N        15.65802702370961    7.52910311524419    5.94105756810287
H        16.44595516941079    8.16445786225683    6.11993679449334
C        14.63494421984197    5.66036013885993    6.07619230265016
H        14.46149535756045    4.63441473360933    6.33934094463249
C        19.34439640106609    5.44503499047107    9.84735672129904
H        18.45940913573056    5.57138232763179   10.45748137983114
C        20.23900654154405    5.23192623106942    7.72763763414046
C        15.56012572199173    5.26448322502436    9.67229304264171
C        13.80645205994871    6.52310867472643    5.35908772270027
H        12.84296056286263    6.30542709201602    4.94924636199497
C        19.92879512014920    5.14735619771556    6.30297577510776
C        16.35444785742792    1.62158071585781    7.75624976128999
H        16.61228725710853    0.72093108938066    7.22394455966183
C        16.21761350835311    7.48291743811826    9.67614407903378
H        16.84777263418882    8.24219020745739    9.23165810978193
C        14.50151518877230    7.71361142494237    5.29565289319226
H        14.24430364164613    8.64751894854106    4.83966736434455
C        18.22626940974847    5.12526906702160    4.74213001854760
H        17.16230658508025    5.17897480776569    4.55273394540647
C        15.77161802074732    3.96480319551866    9.04414160076451
C        19.11527870490418    4.96123171106705    3.69904200235277
H        18.75213672056449    4.89261871046103    2.68686815620373
C        20.88079791729247    4.98673318045934    5.29782843973392
H        21.92834601614659    4.94254066226896    5.54417028112123
C        14.67644571794136    5.50240289572958   10.72391538322102
H        14.07337554990295    4.70229791825843   11.11938632663138
C        15.43177204272414    1.60051686605742    8.79737275607866
H        14.95355949193019    0.68136492660115    9.09405854340122
C        15.14421584453904    2.78634798142913    9.44497147266862
H        14.43816290735657    2.79959894627690   10.25827671618865
C        14.57479692029453    6.77440664793413   11.25520469272697
H        13.89603649352712    6.97541097732032   12.06835377024205
C        16.93918554633172    2.82090750898992    7.40809968153925
H        17.65449017640403    2.86631418369197    6.59794948205611
C        20.58884769753208    5.35966323491902   10.43763805950184
H        20.68183708008113    5.41654308999928   11.50962077195573
C        15.36497807672408    7.78472727467714   10.71998048568754
H        15.31927823371079    8.79029882329544   11.10404895792525
C        21.52485941131508    5.14316553089995    8.25852485156639
H        22.37365186890939    5.02949008538369    7.60534899882414
C        20.47500774185031    4.89885785145567    3.98000039171384
H        21.19861532108454    4.78521313307347    3.18919232453925
C        21.70740299798971    5.21326609141376    9.62581482579371
H        22.69609188379521    5.15720729065352   10.05169167192010

