55
CSD_code = ZACKUJ | q = 0 | S = 0 | Stoichiometry = C22H24Cl2N2O4Ti | MND = 6
Ti       -1.49791340822938   -1.32012588887414   -8.58365768797722
Cl       -1.96096462889495    0.18126625477015   -6.99676035587581
O         0.17655839523054   -1.44768889183213   -8.06148653471379
O        -1.39907362825489   -3.83239637430108   -5.07111644929447
N        -1.81216297401517   -2.85303277546631   -7.03789610607764
C         0.82185732002537   -1.58467167958201   -6.94188721845273
C         2.07312145093844   -0.97126446344886   -6.74456537614937
C         2.76146119343291   -1.13939002629759   -5.56627947225604
C         2.24470963193555   -1.93556792153018   -4.54569605586199
C         1.02615442284951   -2.55161078308965   -4.71082787500970
C         0.29911353893881   -2.38872887578996   -5.89592871032568
C        -0.99465686579039   -3.00677565964494   -6.05120475864999
C        -2.67390790117840   -4.33955362459423   -5.43287953414440
C        -3.05513588630816   -3.56021635282556   -6.71950156840366
C        -3.45527899274164   -4.49080518335358   -7.86301732761575
C        -4.15782634185391   -2.53967697551696   -6.42143364766859
H         2.45900474958122   -0.34921417686239   -7.53980109936093
H         3.71389425638182   -0.64843093434324   -5.43065820889424
H         2.79588231016394   -2.06056293850934   -3.62691364005278
H         0.60412753734934   -3.16273379444871   -3.92798399902179
H        -3.36757305641868   -4.16136330190173   -4.60871622858795
H        -2.58330044411005   -5.41816377160565   -5.60300735939584
H        -3.63762860576594   -3.90763661107513   -8.76395586591878
H        -4.36241851088366   -5.03083187367264   -7.60072301400655
H        -2.66201397830215   -5.20944606350731   -8.06470485249856
H        -5.07248062409973   -3.05401697375565   -6.13314463297973
H        -4.34776968740228   -1.92821667658315   -7.30161778621120
H        -3.84265470521025   -1.87661969813768   -5.61655143826561
Cl       -1.03491139815904    0.18124177804248  -10.17058759671520
O        -3.17239654626119   -1.44765109099469   -9.10580702578052
N        -1.18370996872256   -2.85304978857438  -10.12938574118165
C        -3.81771402601244   -1.58464777717827  -10.22539553893628
C        -2.00121831401690   -3.00677657542820  -11.11607748854523
C         0.05925781636619   -3.56023775880805  -10.44779644173346
C        -5.06899986956649   -0.97128083733907  -10.42268681356191
C        -3.29498160089905   -2.38871244016835  -11.27134934076173
O        -1.59681810483412   -3.83240073968242  -12.09616818715094
C        -0.32198779789493   -4.33957402161768  -11.73441354066597
C         0.45942340914206   -4.49082578421563   -9.30428892084907
C         1.16193834601420   -2.53969357282383  -10.74587916626377
C        -5.75734893781837   -1.13941072709495  -11.60096151150278
H        -5.45489477855117   -0.34925776548542   -9.62743284835980
C        -4.02202786885925   -2.55159383878148  -12.45644377308905
H         0.37167174622313   -4.16139276798061  -12.55858354195014
H        -0.41260817205164   -5.41818339592732  -11.56428236143671
H         0.64177136111528   -3.90765908155984   -8.40334872808972
H         1.36657041533067   -5.03083403401969   -9.56659580502346
H        -0.33382587396176   -5.20948318486085   -9.10259808026629
H         2.07658759452576   -3.05403397999083  -11.03418307235697
H         1.35189323548435   -1.92823397034292   -9.86569726367804
H         0.84675141193588   -1.87663704311198  -11.55075602588640
C        -5.24059027428545   -1.93556285214933  -12.62156291899409
H        -6.70979594318281   -0.64847376421878  -11.73656177944459
H        -3.59999745577388   -3.16270823983417  -13.23929305971432
H        -5.79176297265218   -2.06055071007618  -13.54034662439194

