45
CSD_code = ZACWOP | q = 0 | S = 0 | Stoichiometry = C16H22N4S2Zn | MND = 4
Zn       -4.12963097972731    1.69065935237540    7.81891431890376
S        -2.08054432432191    0.46663930606399    8.08822872888438
N        -4.03535857039565    1.81350165207297   10.12486667444771
N        -5.46024550011489    3.43919894073646    8.61621798803572
C        -6.07327575860943    3.06126464281739    9.73155058250867
C        -7.28515377952350    3.61520385531714   10.12965279284559
C        -7.87633482912604    4.57806792263772    9.33169330808180
C        -7.22920908591237    4.96930060156078    8.16862647669677
C        -6.02073062106824    4.37161588674052    7.86045621222969
C        -5.41918456307782    1.96487052808158   10.52380960465733
C        -3.38463745892253    0.58310504125937   10.54234868722710
C        -2.00772605148481    0.50124375194277    9.90116307871594
H        -3.49266660733577    2.60594801243713   10.46170510626903
H        -7.75626465272536    3.28204137989446   11.04148256413522
H        -8.82376117265861    5.01546101189369    9.60959020966870
H        -7.65433499985771    5.71750429076666    7.51823784457501
H        -5.46602999760572    4.64542604382649    6.97336931130769
H        -5.54069457219633    2.14692988485863   11.60332750718271
H        -5.94274692525131    1.03588518912749   10.26961987036674
H        -3.99481731608091   -0.25585243387366   10.19646863442498
H        -3.28341145126409    0.52195345769635   11.63894640892525
H        -1.50124458016839   -0.41275512829604   10.21261466568155
H        -1.39857819465234    1.36157399659969   10.19566180004166
S        -6.17861819166854    0.46653410398809    7.54956221456153
N        -4.22368444512623    1.81325933244871    5.51296603970914
C        -6.25115464957124    0.50071802206257    5.73661945217194
C        -2.83986394102358    1.96476806972841    5.11404901635388
C        -4.87417164164544    0.58269121362462    5.09561106317101
H        -4.76649109922961    2.60556476938264    5.17599326809334
H        -6.75737506810465   -0.41348132921087    5.42534376497872
H        -6.86046951298028    1.36082247026390    5.44183413341877
C        -2.18578505846705    3.06104373176346    5.90648695793696
H        -2.71835766834846    2.14705203603993    4.03456805622058
H        -2.31624159559382    1.03576665561085    5.36805347941387
H        -4.26389893629436   -0.25610140142601    5.44171805040307
H        -4.97526594506201    0.52131340262633    3.99901584674942
N        -2.79905706370047    3.43913697293071    7.02163329303313
C        -0.97363802566138    3.61467764723709    5.50874881677361
C        -2.23857984267568    4.37144846643744    7.77754184610927
C        -0.38243651763663    4.57736376988989    6.30690567206452
H        -0.50227945089806    3.28131654020626    4.59712647108650
C        -1.02984096878898    4.96880723554054    7.46974839540825
H        -2.79349941651383    4.64541797029776    8.66444437287796
H         0.56521469174663    5.01447756812589    6.02932189367256
H        -0.60472366068184    5.71691556588517    8.12025551997113

