83
CSD_code = ZACXEG | q = 0 | S = 0 | Stoichiometry = C28H48Cl2N4Ru | MND = 6
Ru        5.39988289338198    2.94054788877206    1.59891906478209
Cl        7.59546819796194    3.07797892507749    0.77291546475314
Cl        4.76205329960524    4.79739317141153    0.30691413247288
N         3.58369593076382    3.02318097045259    2.33425614367129
N         5.68570194063610    4.24040712748044    3.06793451942434
N         6.00811578462839    1.31377683183009    2.50879283568765
N         5.09093668522816    1.61104477099223    0.16143466213947
C         2.44784551332853    2.26117438583952    1.86965961255704
C         1.47608769633730    3.14079949149208    1.07095361460013
C         0.36270540548710    2.28047768178470    0.48539478235866
C        -0.38043882073291    1.54413416525315    1.59732316794549
C         0.58258153748886    0.69189490651217    2.42020555685085
C         1.69868853359589    1.55241621250863    3.00548832862161
C         3.40702008283579    4.00038465027386    3.18158179263737
C         4.57372612223679    4.67974182842737    3.58435105627493
C         6.95052510640826    4.84385382923200    3.41373474426821
C         7.13927617680804    5.14635794710728    4.90340551056671
C         8.55938901436733    5.65691582949478    5.12894248365515
C         8.79591559452730    6.92933825232341    4.31976488985142
C         8.55161406861244    6.67556495695047    2.83471615868125
C         7.14890212784190    6.13128426554706    2.59798520811241
C         6.47481261421671    1.22969235453667    3.87329407784516
C         7.99616931923778    1.03612013262754    3.93464103879623
C         8.46447943326078    1.07902772951849    5.38440808755028
C         7.75898052503339    0.00168996543364    6.20448829963084
C         6.24336947272090    0.16670537648847    6.12334364654258
C         5.77268419314886    0.12424363389816    4.67245832083661
C         6.15342982231405    0.29228484208327    1.70908144886794
C         5.64998304224901    0.46003470870376    0.40386299865600
C         4.51934155387617    1.89798519596200   -1.13238129673429
C         3.69376501205307    0.76167601426155   -1.74326831283223
C         3.05072921801689    1.25693935065889   -3.03534258873108
C         4.12760354698237    1.69048415918090   -4.02641706932127
C         5.01085231696409    2.77772725492417   -3.42033438403359
C         5.63119003048792    2.30965316526343   -2.11038672531365
H         2.84557341732360    1.48904607859478    1.19985924829751
H         2.02876952412777    3.65914550787494    0.28546277042359
H         1.04438972619302    3.89889805630430    1.72714248480013
H         0.78814226467964    1.55526521310180   -0.21181791596284
H        -0.33224788551873    2.91037328230409   -0.07231608949118
H        -1.15845891846955    0.91003842928911    1.16831206980779
H        -0.86646293078433    2.27222736773779    2.25076064083488
H         1.01904547377716   -0.08114350678575    1.78319081149204
H         0.04191427520313    0.19316586470112    3.22714855144513
H         1.27033701125271    2.28737057187458    3.68949971175567
H         2.40031387397039    0.93248967227326    3.57012962509675
H         2.43363531392260    4.26480589275928    3.57893706287252
H         4.53253927881077    5.49184978777173    4.30158198449015
H         7.72505512168853    4.13496713119491    3.09952257311932
H         6.95952535845312    4.24355308286648    5.49394658665019
H         6.43542980748361    5.91275576225750    5.23398363263192
H         9.27387957539207    4.89097234482117    4.81947253743279
H         8.71626547742154    5.85469782473809    6.19187984661201
H         9.81816374804511    7.28018759747645    4.47340531680836
H         8.11839010559894    7.71164077044740    4.67137546704642
H         9.27849188129361    5.95203842401370    2.46105947484021
H         8.68088581495522    7.60196234945905    2.27254349015019
H         6.39523538909992    6.86661964031138    2.89168082167047
H         7.00891912064039    5.90290972200731    1.53934122782572
H         6.22962548901438    2.18914075705519    4.34479979123948
H         8.47787737169929    1.81528984763777    3.34132970279351
H         8.26167745774663    0.07291211207163    3.49502919105719
H         8.24898145111726    2.06151123101089    5.81031039780504
H         9.54452056830611    0.92853536598614    5.42493479734127
H         8.08043469994139    0.05653369585218    7.24620265819210
H         8.03571910458833   -0.98319636844687    5.82146207784821
H         5.95746818645876    1.12307731570566    6.56767744419646
H         5.75200215990787   -0.62539429488352    6.69186573434507
H         6.00291531834068   -0.85279806933077    4.24348847447553
H         4.69053872094182    0.27139529806272    4.61870446964535
H         6.60363971709856   -0.64199766863259    2.02494324412049
H         5.70371101290740   -0.33932700365967   -0.32669787388030
H         3.86791051179227    2.76824069040583   -0.99386250521354
H         2.92696208982854    0.43408602044543   -1.03551577711661
H         4.32894573487603   -0.09557058643234   -1.97494755987389
H         2.39736107233573    2.10383825409473   -2.81438421689184
H         2.43886079457880    0.46353422860497   -3.47085733465059
H         3.66044723165457    2.05882064247001   -4.94174357640551
H         4.74341666531578    0.82693588074030   -4.29046608077073
H         4.41416496534356    3.67140458296327   -3.22848478808689
H         5.80293018957054    3.04725578046825   -4.12094877944250
H         6.29764952175364    1.46009282756630   -2.28064802898347
H         6.21432514842358    3.11681062056077   -1.66211466405296

