70
CSD_code = ZACYOR | q = 1 | S = 0 | Stoichiometry = C31H35N2ORu(1+) | MND = 9
Ru        9.94452180238324    1.93459304243761    0.48545744043292
N        10.19779752386446    0.25844029360800    1.59689971188933
O         8.40556914197997    1.02694341610368   -0.52567598422607
C        11.61450329613439    2.02213382169402   -1.21328092971316
C        10.49043014983498    2.78378830165355   -1.60478759830628
H        10.01964999371548    2.58770737087924   -2.56082102690482
C        10.01065467742689    3.83654380132230   -0.81456657076287
H         9.20324924919186    4.46157190432799   -1.17901506719971
C        10.63397150694861    4.15216950756595    0.41746575827372
C        11.79078842257010    3.43171312095470    0.79463337684228
H        12.35892431454580    3.74782467842967    1.66249419206824
C        12.25906314504052    2.37882016045932   -0.00948338050645
H        13.18460419945651    1.87819133907817    0.25411715732982
C         7.77120634709954   -0.03663349129378   -0.17680748584349
C         6.62002688512141   -0.39381596985437   -0.92159501648957
H         6.35118472150758    0.24594595194748   -1.74808089354520
C         5.87239748791341   -1.49486635613989   -0.60379528089299
H         4.99330343960136   -1.72894561651482   -1.18473470461168
C         6.23577723174592   -2.31862023546529    0.46677520531906
H         5.63936739403604   -3.18283433705530    0.71022517989114
C         7.36013561034733   -2.02326868431554    1.18759254497958
H         7.65814718197636   -2.66304291563132    2.00587535868977
C         8.15623564445246   -0.89345327273694    0.89803748719109
C         9.35889178692460   -0.72638296266415    1.63904809232118
H         9.58302803573227   -1.56144777248929    2.29924508726633
C        11.44651596553412    0.15295793973538    2.34067096286203
H        11.76095596330313    1.18340328871078    2.56246485653861
C        11.33626118103918   -0.59313601668021    3.68046393613280
H        10.45068086397475   -0.27834138094910    4.22925458274416
H        12.21584594156322   -0.36982866980989    4.27830634195716
H        11.30641254042395   -1.66996317660691    3.53562498792872
C        13.85490332042392   -0.11585787769811    1.68645261795413
H        14.09096993874929    0.65819814593320    2.40400251559509
C        14.87152639940206   -0.71726984970155    0.96646444023780
H        15.89372660557510   -0.40652220295920    1.11994990554908
C        14.57712737223782   -1.71546370241314    0.05225505203682
H        15.36875712220062   -2.18275319677901   -0.51244292882073
C        13.26438163366666   -2.11441453268080   -0.12772231065978
H        13.02756130294586   -2.89775402705108   -0.83121915489459
C        12.24668564873870   -1.51602088258958    0.59686193401317
H        11.22751735816607   -1.84199578525413    0.44680701334859
C        12.53223637238328   -0.50472261172477    1.50247235920231
N         8.54377856897203    2.45140133561816    1.82362134410275
C         8.74768092360301    2.46453270699265    3.14481913157811
H         9.70917393407106    2.10746452445892    3.49376890771124
C         7.80242777577905    2.90963443635165    4.04653381457829
H         8.02631094534117    2.89416342450859    5.10159198468378
C         6.56920914225615    3.37179092475659    3.59263316374338
C         6.37209060698578    3.36123442696873    2.21206227864085
H         5.44121993923042    3.70801275563887    1.79187424067744
C         7.36748802106453    2.90484225606926    1.37433870892070
H         7.21928561309711    2.87790039648266    0.30059740124725
C         5.51927566286528    3.86842558596587    4.52246880741980
H         4.54587850884026    3.46730075912522    4.24897979989324
H         5.45395085510252    4.95471708986951    4.46009604955693
H         5.74283292906475    3.59710144681095    5.55006223195608
C        12.18182000662583    0.94053681340337   -2.10113411984435
H        12.95584596182646    0.40954741553834   -1.53525950628891
C        10.18783196843098    5.34358809250222    1.21162793843427
H        10.40724297890812    5.22106204011653    2.27076922719594
H         9.12191455422028    5.52648573687574    1.08915760727685
H        10.72199270116191    6.22731665546624    0.85895581970654
C        11.09973051891061   -0.06744095103246   -2.49565666629488
H        10.53290242397719   -0.37618735793944   -1.61611193713621
H        11.55543328800563   -0.94714777586256   -2.94125190691952
H        10.40806107689781    0.35861925877477   -3.21776491850851
C        12.83159966836259    1.56574411921485   -3.33954302470748
H        13.61582730526255    2.26263201615299   -3.05210056608039
H        12.09657249758235    2.09972557075746   -3.93713745963510
H        13.27252690366956    0.78670573861395   -3.95508811711244

