39
CSD_code = ZACZOS | q = 0 | S = 0 | Stoichiometry = C12H12N10O4Zn | MND = 6
Zn        0.00012999510352   -0.00022591789641   -0.00218761902286
O         2.00472940039541    0.25824155147936    1.05994698214137
O        -1.08580381113361    0.80684314180880    1.46726616178089
N        -1.60553205552600    4.75885235776762    0.67598132678497
N        -2.85740381112632    4.84285311610502    2.56882090150625
N        -1.99158356999708    2.81193029444856    2.03977402891670
N         0.09689750199149    1.89323459132080   -0.71699464934211
N        -0.31234255993867    4.60428252869155   -1.25089598353204
C        -2.11748689092364    4.11154184054813    1.71855336918079
C        -1.25877326965194    2.03935569298923    1.25277088963817
C         0.62233236864080    2.46646462577218   -1.78762398579970
C         0.39924169066261    3.82935237482987   -2.02997324994199
C        -0.86413043515326    4.03425309275125   -0.15920825167052
C        -0.64001128409843    2.65206169107299    0.08408994588652
H         1.20850447615563    1.84137718879558   -2.44259773715178
H         0.82792740225337    4.30340323910256   -2.90357775541343
H         2.11530986837512    0.99529281429530    1.66736041306594
H         2.67894777887742    0.32609229183603    0.37620695631711
H        -3.28607264759749    4.38841573200965    3.35344329751506
H        -3.01313803356087    5.81266072293523    2.36521200963424
O        -2.00860890791556   -0.25784706485545   -1.05867019030757
O         1.08769195925666   -0.80748197453133   -1.46923135504191
N        -0.09901313748186   -1.89375467019225    0.71288449997768
H        -2.12597602553398   -1.00163279679413   -1.65651467306303
H        -2.67812405278243   -0.31587184788952   -0.36936598425101
C         1.26125400219334   -2.03971379784867   -1.25366700103740
C        -0.62691580344679   -2.46695761833373    1.78234423046211
C         0.64005825079060   -2.65245174331106   -0.08626714545185
N         1.99654348586051   -2.81214793436355   -2.03849636937819
C        -0.40416957670530   -3.82974061331119    2.02540859048470
H        -1.21463823952652   -1.84186821025314    2.43593731029564
C         0.86411735219444   -4.03450993444529    0.15793387217423
C         2.12249968200028   -4.11154480345324   -1.71643294494867
N         0.30964225094297   -4.60456463480851    1.24824952069579
H        -0.83498156143328   -4.30379208784195    2.89796905187679
N         1.60802928348856   -4.75894733937064   -0.67513193470323
N         2.86575124620782   -4.84251255446296   -2.56406135646897
H         3.29489878614258   -4.38837903334259   -3.34858996532016
H         3.02019889199823   -5.81256431125316   -2.36066520649049

