25
CSD_code = ZADFIT | q = 0 | S = 0 | Stoichiometry = C11H8ClN3OPd | MND = 4
Pd        3.19438386248209    1.76434709823085    1.13112500943396
Cl        2.33022820207321    3.67242801435826    0.48421437719800
N         3.95910703501247    0.15514851104486    1.68743932752677
N         5.20045961734670    0.12860836779206    2.06092804550574
O         1.51515762547558    0.55446353727526    0.88169474053675
N         5.05255465368847    2.40811046146472    1.54663376523746
C         1.82961437561838   -0.64492954683224    1.21702481253015
C         3.54373964098612   -2.24261640724847    2.04856303290510
C         5.79396936632833    1.34385839239626    1.98619418776140
C         7.13730155775297    1.51289416643814    2.34800668848970
C         0.91380970145268   -1.72430301500281    1.16172263317776
C         3.16442688097288   -0.93979412701774    1.67336977325103
C         5.61498444813985    3.61028659260014    1.46126269573363
C         1.31151743887513   -2.98069785907161    1.53220528819010
C         6.93590350685019    3.83309641007301    1.80359144402181
C         7.70624462610920    2.76348376772211    2.25473260426781
C         2.62012413839740   -3.24841262678279    1.97560137525450
H         7.68761704077193    0.65252193780334    2.68989608500801
H         0.60364293735672   -3.79549072155174    1.48446286550949
H        -0.09074605515169   -1.52520596184352    0.82269845663024
H         4.97177996810253    4.40718975890204    1.10589240071315
H         7.35365097640516    4.82249251145939    1.71927882543693
H         8.73946025097589    2.91325080615544    2.52833794273107
H         4.55588344162696   -2.40969072225936    2.38337930270608
H         2.88778476235076   -4.25483934610399    2.25704432024385

