50
CSD_code = ZAFCUE | q = 0 | S = 0 | Stoichiometry = C20H26ClNPdS | MND = 4
Pd        5.35046522939856    2.30062012559758    3.79092720807751
Cl        3.84118552443657    1.74181100947018    5.54869878385329
N         5.84725277540620    0.36273282042217    3.97173238564440
C         6.54437393477300   -0.02528690450109    5.03941546925717
C         6.44274424686345   -1.29560858080796    5.57767777524298
C         5.57593439119680   -2.20555551254355    4.99281075957152
C         4.84526144870857   -1.79799986070197    3.88795604251351
C         5.00886459561716   -0.50858032417308    3.41285706480694
C         6.69190340290965    2.65850540317065    2.31225439238714
C         8.10159812326542    3.01715826270338    2.74232252374250
C         8.97431828327599    1.75330939532464    2.72514723486209
C         8.06073756501736    3.58015840804703    4.17904745436298
C         8.73241870575034    4.10120975121514    1.85591243988760
C         6.22845872031975    2.45046599013044    1.07970178460177
C         6.97448170733552    2.46793719830057   -0.23637487275357
C         4.76733767955805    2.17622316130123    0.94542482161580
C         4.31610859605154    0.97532683460264    0.40295139000161
C         2.96237989644596    0.70534162163602    0.28673159197762
C         2.03225379793072    1.64580589862271    0.69165985244901
C         2.46081083630865    2.86235774272633    1.19538621962130
C         3.81674965727410    3.14180852088795    1.32857346507581
C         4.26089626007006    4.48707836366713    1.81165680742157
S         4.67194087955943    4.47406827382789    3.60566974011116
C         2.98642303537023    4.45645507571091    4.26661205289783
H         7.20080655823033    0.71188009699420    5.49298967411542
H         7.02219030362203   -1.55843973193711    6.44883525123260
H         5.46435443477151   -3.20116794819220    5.39472851234230
H         4.14518840214610   -2.46316553114554    3.40684660544342
H         4.44023919849849   -0.15389487152476    2.55855964380951
H         9.98238254867702    1.98426387282020    3.06458676421667
H         8.54945183246020    0.99174451161092    3.37651829033803
H         9.03620323888125    1.34051328774611    1.72154153970694
H         9.07114070717254    3.68636463486846    4.57093026845586
H         7.58691822874538    4.56321295195605    4.17666037900646
H         7.49036790334318    2.92242984358326    4.85732537323205
H         9.63862568358250    4.47677036757496    2.32769540084594
H         8.99873001441024    3.71818623964291    0.87737987681082
H         8.04326855728419    4.93359490246764    1.73021451324371
H         6.41001352629839    1.91991739510216   -0.98805684221762
H         7.09546494063832    3.49084507208118   -0.59404420986262
H         7.95786550153216    2.01465474888513   -0.14683271815445
H         5.04130057728586    0.24022807825477    0.08035186870282
H         2.63521046649242   -0.24070391545815   -0.11989946564511
H         0.97592664200195    1.44044737460192    0.60589656074588
H         1.73128907787638    3.61311994766193    1.46767823306284
H         3.48977300942273    5.24533495206801    1.67277078956069
H         5.18191395506690    4.79578045583293    1.31668391255485
H         3.06966890620814    4.36885351160801    5.34624911267410
H         2.49825719070685    5.39040308833367    3.99487473729456
H         2.44974930180181    3.59128398991322    3.88226354125203

