57
CSD_code = ZAFDEP | q = 0 | S = 0 | Stoichiometry = C25H28ClNPdS | MND = 4
Pd       -1.98016809770632    8.91591079367094    5.02638348490786
Cl       -1.18915661613229    8.28349285721612    7.17902017106017
S        -0.27389725648825    7.85779908291641    3.91838605504975
N        -3.80922666519474    9.26393050288336    5.91183824635323
C        -4.45740563076521   10.41499431032991    6.05797377600479
C        -5.46963505675106   10.59279714406916    6.98522699112510
C        -5.83202411109511    9.52613046998648    7.79257192257075
C        -5.18185318489373    8.31565790357013    7.61341213759853
C        -4.17774008790503    8.22455316399520    6.66365316841742
C        -2.56748594453162    9.82317825148579    3.33832612551743
C        -3.51072170138705    9.19566422606893    2.34234620823311
C        -3.02682568249787    9.42085899954384    0.90283973852786
C        -3.55084083645498    7.67830677880788    2.59973790754311
C        -4.92811942687961    9.75963556647384    2.51951897031102
C        -2.02319399415472   11.03414024248447    3.37323846103412
C        -2.18948623012150   12.21079634824434    2.44071878487396
C        -1.00702480156102   11.26371433987606    4.46421466292761
C        -1.31048572541459   11.91472828017215    5.66294298495353
C        -0.32445036604844   12.17570199434059    6.60109481900575
C         0.99271983041594   11.83818811973830    6.34365748573982
C         1.32218070034746   11.22965512816226    5.14507400881776
C         0.33550791197669   10.92702658329741    4.21435382772589
C         0.68725214439635   10.29054588118867    2.92510101615973
C         1.27553516468232   11.04973487046258    1.91961817572474
C         1.57038123320289   10.49362668811645    0.68777686943413
C         1.28159650122458    9.16182605876605    0.44165744961509
C         0.71300303362492    8.38852532059811    1.43799114726634
C         0.41944078473098    8.94696479392769    2.67263729254622
C         1.13344316139222    7.78133676221113    5.06178390601735
H        -4.16743209349160   11.21631214103772    5.39030642986053
H        -5.95913300310987   11.55022299701084    7.07307595163859
H        -6.60877648527719    9.63336652765106    8.53483879158669
H        -5.43952162845380    7.45232351347012    8.20603179848413
H        -3.64811518001039    7.28824078680934    6.50609220842240
H        -3.60934487657928    8.80866930926926    0.21669133055362
H        -3.13274185978154   10.45894027293983    0.60612651901763
H        -1.97865719720425    9.14374267732699    0.81110905051736
H        -4.31974582347708    7.20829722714572    1.98882937908903
H        -2.58796085907182    7.23287773199563    2.34800630332866
H        -3.76770496125277    7.46984844068083    3.65629110258689
H        -5.59835586787246    9.32698349553134    1.77906726810660
H        -5.30779306317736    9.52028804104659    3.51125760223325
H        -4.93694566298411   10.84002925344092    2.40047793199411
H        -2.04979661229051   13.13868225271720    2.99416030949060
H        -1.43840855036182   12.17396379000335    1.65029871612714
H        -3.17439490860211   12.22423162776704    1.98307943720740
H        -2.32147344212316   12.25122215999160    5.85057858951049
H        -0.58644868933078   12.65643773231638    7.53194432477696
H         1.76235028987164   12.05070772511284    7.07027651678106
H         2.35195719150925   10.98179535259175    4.92224502199391
H         1.49042584095662   12.09068007592523    2.11407342515279
H         2.02203462996318   11.10132750641755   -0.08213449485820
H         1.50349243237971    8.72426084181802   -0.51981490163564
H         0.49030746176424    7.34594922792897    1.26773022932678
H         0.84459041108161    7.08923162345637    5.84841547434353
H         1.99872886788743    7.41374154287972    4.51555588347408
H         1.31994458902874    8.75960466311572    5.49569400582998

