93
CSD_code = ZAFFOE | q = 0 | S = 0 | Stoichiometry = C39H46ClN4O2Rh | MND = 4
Rh       -1.12614502451067   15.91387770108576    7.20886296574224
Cl       -2.24797085175561   13.92843506553600    7.04232184434983
O         0.40926377729079   18.43095001289818    6.80808231494997
O        -3.64104772039285   16.82919106372625    5.86275639118075
N         1.03625038629449   13.40508035231661    6.28123389798669
N         0.55395100978636   12.38890842446555    8.18842981853944
N         2.04026719589329   14.52391857294188    9.98893624544149
N         0.43188800573194   16.00583998303128   10.39862801159789
C         0.39444797020994   14.85530815365560    8.19283272012679
C         0.68287401782264   13.62197133150272    7.58447645819922
C        -0.22444042624967   12.16906467880279    9.38044597044455
H         0.13735604606949   12.78483660477688   10.20080848865209
H        -1.27112201154107   12.41537188893124    9.17553122681583
H        -0.15297280176097   11.12317805312275    9.66562149979730
C         0.78711149425502   11.40692372556361    7.25146437895775
C         0.73359131508113   10.02522748840912    7.31662516137224
H         0.41898894096443    9.50404016268901    8.20747331058516
C         1.07708772970886    9.31391062040477    6.17743693412034
H         1.04463586113439    8.23534199939279    6.20257052535935
C         1.45417974610858    9.95675545202753    5.00631343287125
H         1.72138300510115    9.36870226915952    4.14169440146708
C         1.47811236846429   11.33973310929347    4.92062443545977
H         1.75505072480174   11.83389282841232    4.00298153898237
C         1.13106446001830   12.05373678345764    6.05318350336493
C         1.12957727912256   14.39273524864447    5.24665930062381
H         0.48716500115466   15.25155711235805    5.52116897687549
H         2.16079888464002   14.72823930330208    5.11440824589111
H         0.76756258634528   13.96540559958226    4.31151104002135
C         0.88595481631284   15.10260637993976    9.45166904939675
C         3.45236692188595   12.61923166492114    9.39878738567481
C         4.31502358677432   12.02661834305857    8.48563784758497
H         4.62569868998068   11.00464447435893    8.63118704702681
C         4.77721265239273   12.72708137504585    7.39115012357627
H         5.42057300207847   12.24367542005609    6.67123311568384
C         4.46623149972602   14.06748343938731    7.24987206955451
H         4.90777851624469   14.62386724144905    6.43908878627109
C         3.62035103629105   14.70504493268446    8.14390772767264
C         3.04347353410143   13.93773763904432    9.17249649258487
C         3.06373782659642   11.87667384649654   10.65572409384170
H         2.18032743889851   12.35351885095446   11.08920835118429
C         2.74790159330979   10.40117394526074   10.40640582962646
H         3.66023950317329    9.82264047116931   10.28374860280319
H         2.20545793815255    9.98860250120498   11.25450344388485
H         2.14839086181286   10.28162776337856    9.50987155550907
C         4.21375772832925   11.98601062377595   11.66540322529738
H         5.10589282249921   11.50430183452759   11.27116548408643
H         4.46144038410195   13.02398982467679   11.87440866155121
H         3.94077549841335   11.49959125076975   12.59941036951441
C         3.44484273101568   16.20895645973683    8.11085616743396
H         2.41318910297232   16.46200841641443    8.36879157593669
C         4.38208346368212   16.80798099138438    9.16946923760833
H         4.14782537142949   16.43427955274657   10.16370498131814
H         5.41469961640028   16.54862116841333    8.94222150733825
H         4.29173830510653   17.89152444522699    9.17714573966655
C         3.73826385501517   16.86212249795105    6.76244156267980
H         4.79503510425278   16.80431014656327    6.51171970017615
H         3.15592859448878   16.40367231536841    5.96862759446156
H         3.46467071102195   17.91370876656934    6.81024288033985
C         2.24480792841780   15.05800986381093   11.25204561049253
H         3.06383394465248   14.74907890159130   11.86723500242401
C         1.27269385370401   15.95208434051513   11.49464622817912
H         1.08755962076712   16.54219123415165   12.36805044193310
C        -0.18063174628491   18.34998026261145   10.12006395947148
C        -1.16366458943781   19.29123998313554    9.83688362648396
H        -0.89895357237456   20.33526989946060    9.78026627635717
C        -2.47192557639649   18.91334531283890    9.61797727809027
H        -3.21426039609708   19.65875389891286    9.37396532150280
C        -2.84523161308112   17.58847707849062    9.75597144625238
H        -3.88363723912402   17.32248408088040    9.64731622704469
C        -1.90474176569542   16.60968656536581   10.06053681302176
C        -0.55611313267834   17.00125203769028   10.18505949888791
C         1.22508610008163   18.82375681747315   10.42202009804451
H         1.89989630158546   17.96446115982877   10.44623807945435
C         1.76966644482543   19.80142785095552    9.38011711445528
H         1.72314769673256   19.37047477946277    8.38531197148817
H         1.20946226466692   20.73223999821445    9.37598412488654
H         2.80748990836527   20.03722840361961    9.60890085079863
C         1.23997065539189   19.48722035004297   11.80482247196165
H         2.25636739260983   19.76158029348536   12.07936991799812
H         0.62939256730876   20.38692445758172   11.79896223432344
H         0.84402131003643   18.81992941909765   12.56721380949016
C        -2.32208196176977   15.20507482387869   10.45002213101023
H        -1.64144025778939   14.49657977873890    9.97186321732573
C        -2.19571689416985   15.06108400799284   11.97241405074250
H        -1.17206249607244   15.20942994509589   12.30637602442564
H        -2.82875883928227   15.79344172670998   12.47027138840946
H        -2.51437530499449   14.06678953894789   12.27817214694479
C        -3.74146467045645   14.83904451948537   10.02531006377528
H        -4.48288897022052   15.41907995515153   10.57066508486052
H        -3.87216829236180   14.99360055193578    8.95753783578629
H        -3.91867666756124   13.78576854273412   10.23271467187041
C        -0.16941896558337   17.46846777482681    7.07190308173614
C        -2.64035471394375   16.57170167326955    6.35580865100893

