71
CSD_code = ZAFHUM | q = 0 | S = 0 | Stoichiometry = C26H34MoN4O6 | MND = 6
Mo        2.60321101447978    0.00263922016546    8.32371080918642
O         2.39703790545238    0.39777241223709    6.73252630612901
O         1.22542140544707   -0.83202915176593    8.75782882492632
C         3.25879366718685   -0.99205707755109   11.21011579614877
H         3.16987309642609   -0.97779824714775   12.30293768326195
N         2.82365596155680    0.00697090017592   10.53505375322181
C         2.18721632532371    1.09380421731026   11.22524341813604
H         2.76220026411313    1.39175218135201   12.11610130700766
C         0.75025630280793    0.76794301900404   11.76007290330056
O         0.42555758336629    1.23767298370569   12.83433765627071
N         0.00136056207030    0.04749918111644   10.93546271736180
H         0.42788617491599   -0.39951159426783   10.09488151724961
C        -1.40726663721083   -0.28502355529658   11.17426010540170
C        -1.89564273065919   -1.01127448716204    9.92361865705265
H        -1.80958816856399   -0.36193311459316    9.05510814867968
H        -2.93549032331985   -1.30473039887688   10.04098615350026
H        -1.29796336871889   -1.90122781581285    9.74144502883724
C        -1.51657556880018   -1.18998821448556   12.40407892088335
H        -0.94618484311013   -2.10370702738655   12.25047897326358
H        -2.55529173263837   -1.45130500282939   12.58687751086006
H        -1.12617771908397   -0.67307272628475   13.27663801087999
C        -2.20449420376120    1.00475480505861   11.38082117350759
H        -1.86877247293159    1.51081963887991   12.28133415319029
H        -3.26203089344494    0.77574580645912   11.47931255263152
H        -2.06300765105867    1.66998772916416   10.53245868875376
O         3.82232511289228   -1.39918917502629    8.39180073557712
C         4.10608808788314   -2.32887203114646    9.25925676660011
C         3.85991713225164   -2.16772099313294   10.65352745320624
C         4.22927885513283   -3.20386452607231   11.52847797789349
H         4.04393287450994   -3.07495089993712   12.58561712837012
C         4.80470230371205   -4.36435811079724   11.07082230105244
H         5.07400133827729   -5.14795902616388   11.76167306373796
C         5.03844563577037   -4.52383889066824    9.70584447762097
H         5.48894417884870   -5.43521032481240    9.34172823104327
C         4.70227340752253   -3.52671285722006    8.82089512150641
H         4.87730287770076   -3.63268471692956    7.75961333927932
C         2.09214539849558    2.30211181332027   10.26812709141610
H         1.41456337722205    3.04785875531415   10.71601431186306
N         1.54257158195535    1.82394615356601    8.98254196355301
H         0.55449919573733    1.56757964279089    9.18004899365706
C         1.40857307082050    2.90613995436599    8.00009365594774
H         1.49397325002688    2.46977514430619    6.99687027015617
H         2.19817453189966    3.65190800409137    8.13756144790305
C         0.01397340000427    3.52974313361217    8.16437548945229
O        -0.79563290459736    2.99821896615354    8.90289599762764
N        -0.19118848682792    4.63678516400929    7.44473581277257
H         0.55062096783805    4.94937368912454    6.83813287597895
C        -1.45377390949571    5.38534710621375    7.37189012472604
C        -1.22451029148719    6.55786302915423    6.42120881781513
H        -0.42911697132392    7.20221337735847    6.79013266315534
H        -2.13162480010628    7.14952063382469    6.33837586399437
H        -0.95848427239608    6.20112632633130    5.42830885730697
C        -2.55405402954042    4.46824408160258    6.83498206486289
H        -2.28830584074322    4.09284471481176    5.84947531897113
H        -3.49086531636969    5.01291122732004    6.76197784012952
H        -2.69131583725270    3.62409736198379    7.50408203814324
C        -1.81293044913779    5.89315856264985    8.76953758823111
H        -1.94537980097574    5.05412269496958    9.44597344839617
H        -2.73748231081495    6.46174890929265    8.73281540471461
H        -1.02292613689158    6.53364269559355    9.15528261827512
O         4.05886539135642    1.18742931652711    8.58326857831911
C         4.39618677020645    2.26677157031265    9.24867381377454
C         3.46179355071005    2.91321779968448   10.08647023403479
C         3.82237351372353    4.06604138948324   10.76671995178736
H         3.09555394100323    4.54552075202741   11.40809481511534
C         5.09316502161426    4.59913728377518   10.63969654455759
H         5.36023546446030    5.49532525254634   11.17740933313388
C         6.01677039338670    3.97077083231775    9.81846940827819
H         7.01078277802372    4.38020431833912    9.71505236400083
C         5.67792522148825    2.82464546519828    9.12963471810517
H         6.38874878366286    2.32761274874228    8.48652231431350

