67
CSD_code = ZAFJEY | q = 0 | S = 0 | Stoichiometry = C30H26MoN4O6 | MND = 6
Mo       12.72893875254485    7.86335038273345   10.64234502481440
O        13.65410016370159    9.01482949686244   11.37950587934247
O        11.42180907772796    8.50980920909216    9.84424043102377
C        10.54407597309648    5.31378683149108   10.14146037237456
H        10.15496934763936    4.29677828980407    9.91448130512231
N        10.16593461161547    6.17033924766878    9.03079228645509
H        10.32339793644427    7.14744872340186    9.31112321752207
C        11.10110030384555    5.81599672469714    7.95832117074506
H        11.50084151895292    6.71765161392289    7.47837826449730
C        10.40334370587144    4.97615620529468    6.87338146340748
O        11.00577210989480    4.15629673373999    6.21213499634831
N         9.09185811796376    5.27834807747259    6.78778064622619
H         8.77436106324195    5.92932150609680    7.50144185226474
C         8.11323177234072    4.76415216212518    5.93299362627597
C         8.40781236550089    3.88162423500901    4.89854963195237
H         9.42602096702389    3.56823376811220    4.74063089333566
C         7.39053577892736    3.41693441584165    4.08454671824023
H         7.62579098716585    2.73322618720637    3.28250332252413
C         6.08190707392812    3.82056728952702    4.28753163377572
H         5.29394605717564    3.45394871217313    3.64724321130236
C         5.78874878779807    4.70015500230568    5.31704828707146
H         4.77108253905380    5.02169496396442    5.48206193439638
C         6.79609782404397    5.17105936278759    6.13655371304471
H         6.57025587182996    5.85905884083327    6.93911810403708
O        11.84542053294151    7.13806362262485   12.02823692936529
C        10.63695239867945    6.66131848847627   12.31406674420277
C         9.97195657385947    5.76382379326371   11.45894647387675
C         8.71225245256535    5.29818194467563   11.82145881114963
H         8.20160612458613    4.61492205246338   11.15787935885386
C         8.10667805109090    5.69743962121330   12.99717698001380
H         7.12724138743889    5.32476767545671   13.25328295006632
C         8.76484481833338    6.57863168419371   13.84187764797280
H         8.29893397479530    6.89754188914645   14.76193524397405
C        10.01697618210330    7.04981724926338   13.50823773601003
H        10.55237288292570    7.74308901281328   14.14242771317705
C        12.23266483126606    4.99102031916732    8.62819701889519
H        12.01639575248291    3.92048746360202    8.44156029202552
N        12.01776949627721    5.28447139888705   10.05158931765715
C        12.71614992819126    4.36451064554311   10.93005010620911
H        12.67796379452232    3.32565781064701   10.55914256642194
H        12.26059511842708    4.40928073879410   11.92684572236699
C        14.13975322605921    4.90692378880494   11.02030082786136
O        14.31257330205422    6.05437520526009   11.41452620838272
N        15.12378725878100    4.08756913453345   10.61123161269596
H        14.86331251126689    3.15724929856074   10.30945242978027
C        16.46712184021527    4.41603094328372   10.33937842645471
C        17.01248371237766    5.66429895429871   10.61471494966891
H        16.41647927450258    6.43100853000312   11.08261676634758
C        18.33002838462587    5.91872540991331   10.27468571834702
H        18.74847428950994    6.89035719973918   10.48712479106277
C        19.10708609168990    4.94597461116633    9.67043511055876
H        20.13328219583908    5.15416273022826    9.40962858279850
C        18.56194441642461    3.70088572745792    9.40292912025444
H        19.15968608266901    2.93527120478993    8.93216012044780
C        17.24796026425992    3.43504939001364    9.73493542816213
H        16.82020924926585    2.46628147726491    9.51777983827165
O        13.68670915558691    7.36090545638019    9.23056513596246
C        14.27238185488109    6.47907822950530    8.43579261217181
C        13.61683044462208    5.27472210591015    8.11820593741860
C        14.26165311840617    4.35290474279605    7.30416529950016
H        13.74516946995385    3.44224294969656    7.03762191328925
C        15.53072658921832    4.59924692775757    6.81202947081704
H        16.01276241544125    3.87064491208923    6.17916259371790
C        16.17583696162325    5.78475401886804    7.12759238590663
H        17.16659373444590    5.97998165724655    6.74669679821854
C        15.55508028717204    6.71897424958242    7.93134432086722
H        16.03096686130864    7.65378775245629    8.19234400267264

