61
CSD_code = ZAFLOH | q = 0 | S = 0 | Stoichiometry = C31H20BrO6P2Re | MND = 6
Re       10.87454381860190    1.26407612567375   11.05299693394435
Br       12.41570032965154    0.78156100335392    9.02546790211009
P         9.62112089060253    2.67185242658809    9.48263547269165
P         9.72481550352311   -0.50454460700670    9.81849387310279
O        12.49714882009883   -0.90599675139011   12.55222466531582
O        12.66640191242693    3.60764224289626   12.00036102403285
O         8.95201070147461    1.77033592228045   13.41848194428990
O         8.55976169151225    2.91798383493634    6.18051387617518
O         8.66679756019889    0.66184946194166    6.06569420190019
O         8.88290113970562   -1.51661704063659    6.61232360376199
C        11.89676501116192   -0.07526637430616   12.05167543350336
C        12.00003965552271    2.73878551679023   11.67396199565004
C         9.64625823686247    1.56397320460756   12.52785532594069
C         9.22926299177830    1.58313784634069    8.09069208408189
C         8.79972102224498    1.87889668532254    6.71090620670661
C         8.97549008349980   -0.36825516836889    6.91591646528250
C         9.37673116909867    0.24266289749320    8.20833721763844
C        10.28261034095616    4.16246937068121    8.69182531960306
C        11.65899361913326    4.35990609810943    8.65189351235858
C        12.17303313443895    5.48625042870794    8.03532131212918
C        11.31844461248699    6.41229739675984    7.46200519730893
C         9.94604572218772    6.21808214129757    7.50856129462466
C         9.42136727261814    5.09874950588704    8.12378873330977
C         7.97692142557524    3.19547782863185   10.04792140637515
C         7.96425371093156    4.07392885836617   11.12934956419382
C         6.76271385143069    4.48459154876457   11.67152779167714
C         5.57043657942418    4.01117832632994   11.14408450645410
C         5.58199919734990    3.13058688366493   10.07567163788688
C         6.78249146910093    2.71687563866382    9.52461138724794
C        10.56344553688994   -2.07974375591416    9.54947291782528
C        11.30651928479420   -2.39119511549397    8.41826151460449
C        11.96296830690199   -3.60774205603399    8.35597283228614
C        11.89269221659544   -4.49785438243250    9.41428641548892
C        11.16446966449097   -4.17822480239926   10.55043991695855
C        10.50177297719978   -2.96948638821840   10.62187160699650
C         7.99636183871163   -1.02195940892037   10.11805323881956
C         7.46180969338215   -2.13125021552993    9.46842221658410
C         6.13139142865266   -2.45389499634419    9.65800458578595
C         5.33261719942337   -1.67435098637553   10.48152778396777
C         5.86375809615235   -0.56791780111979   11.12329854930731
C         7.19494122325252   -0.24013248374533   10.94089840484373
H        12.33045367041703    3.63524484474220    9.09109531126063
H        13.24153447255567    5.63535530080046    8.00178145662153
H        11.72090250945755    7.28910075060413    6.97695638841191
H         9.28118552046732    6.94166757345959    7.06130846043503
H         8.35232716962088    4.94700458743724    8.16017147261096
H         8.90648996636360    4.42274351613661   11.53614576310770
H         6.75364068779199    5.16660639420503   12.50815612928712
H         4.63022817143084    4.32739694556707   11.57016736691617
H         4.65355610133384    2.75954991269963    9.66753788807349
H         6.78355731813797    2.02522251241469    8.69271339551675
H        11.38590780511044   -1.69327467116168    7.59856314375623
H        12.53858234867922   -3.85439069524982    7.47692718474805
H        12.41351537318168   -5.44206303595812    9.35886968840132
H        11.11914113030290   -4.86761783521487   11.38029617311929
H         9.93297292800646   -2.69928856633765   11.50497783944502
H         8.08327956375958   -2.73041370907524    8.81783731389485
H         5.71474808768990   -3.31467615586911    9.15682342867217
H         4.29321672611098   -1.93123375909043   10.62154366268366
H         5.24588376144553    0.04163736356770   11.76564885868929
H         7.61994774825264    0.62020986574133   11.44216920167941

