36
CSD_code = ZAFPOL | q = 0 | S = 0 | Stoichiometry = C16H12N2O5W | MND = 6
W         4.50785565859321    3.21781105867268    1.63018460670828
C         4.29404560492592    1.97996167125445    3.41789849155153
N         4.13204266988857    0.69031100046776    3.57165810230283
N         4.04431144207234    0.05156530697181    4.82574517930659
C         4.10581619955651   -0.24302394085006    2.47038289006137
C         2.69736785556950   -0.38744233308471    5.15365195469821
C         4.27803197753699    2.74684885875505    4.59305423370321
C         4.24021013140931    3.44670336422765    5.58598009806298
C         4.22527863181333    4.36160839840522    6.65747214173944
C         3.71074495329454    3.99590191381151    7.90367547295226
C         3.69976278255074    4.90934535746451    8.93922287624536
C         4.20398669273998    6.18644853793794    8.74769772423972
C         4.71906734281069    6.55343832587655    7.51346587152503
C         4.73009026771305    5.65151295267660    6.46857937339849
C         3.11044133647439    4.41510461306905    2.41184480259515
O         2.35538630587944    5.13901240236142    2.87011880312541
C         5.96414607283162    2.10076254972442    0.83966671264523
O         6.82382173616440    1.54433536715099    0.32819774577571
C         3.09831166319803    2.20739017755492    0.64106667440675
O         2.28460967410168    1.69391113091271    0.02110689470298
C         4.67526471334129    4.41088048464933    0.03966438322901
O         4.76849213742972    5.08893608114804   -0.87620300247753
C         5.87818029033194    4.28990537288814    2.61346943626336
O         6.61834116278699    4.95481495066651    3.17412791697396
H         4.38018410474795    0.70662239521347    5.53206829794366
H         3.10674070978551   -0.30541408017110    2.03351650037296
H         4.39840875697920   -1.22233462892386    2.84594333454269
H         4.80480605049090    0.07506291007182    1.69719381902631
H         2.72810489606284   -0.84896412506418    6.13765354672208
H         2.37686742513558   -1.13448956379002    4.42930158729088
H         1.97130904984886    0.43434769784176    5.16466682038761
H         3.31735976757186    2.99936732221622    8.04753929836875
H         3.29787751649793    4.62587711474576    9.90099532346295
H         4.19481095017855    6.89662926807686    9.56111494592610
H         5.11098673994429    7.54897912659754    7.36664397662113
H         5.12783672973815    5.92647296049152    5.50293316560380

