104
CSD_code = ZAFPIF | q = 0 | S = 0 | Stoichiometry = C39H60N3PW | MND = 4
W         8.12874897295047    9.46392503639553    5.79435926957650
P        10.04649359898333    9.86467645226367    7.29225033293732
N         7.10131642112359   10.73296477344857    6.58845937640369
N         7.59680677207561    7.74852115530614    6.06424228355643
N         8.76812879605154    9.81991429809139    4.13646356713989
C         9.94127483740058    9.19782605781101    9.00474190885716
C        10.27563360733891   11.65627693063531    7.64521622151554
C        11.75835316813940    9.36732087208814    6.82681058651600
C         6.27650828618983   11.70665445072917    6.99548430148636
C         5.99972762390320   12.81126801103233    6.13993981262668
C         6.66371989102873   12.83120699028289    4.78405273588641
C         5.90283520656214   11.91834473267854    3.81508993420785
C         6.81143013492871   14.22850642830239    4.18785909734236
C         5.13518771994858   13.79829473026173    6.56880965202220
C         4.56074842865341   13.75077706302651    7.82959419867109
C         4.84827981083737   12.69766114463581    8.68014938806720
C         5.68763067033615   11.67349101250839    8.28650882013907
C         5.99664670111955   10.51498323443987    9.20502036291233
C         6.75248916741774   10.98807523932465   10.44956316891715
C         4.72110909572041    9.77067702715678    9.60139118304436
C         7.18755090684610    6.50570288700468    5.78034130830968
C         5.81939555806594    6.14914887434802    5.92654857422967
C         4.87835760093533    7.19062049856912    6.48758071336995
C         4.48175422599398    8.19828591400021    5.40189464955405
C         3.63237551330676    6.59724754457699    7.14150825512788
C         5.40810462225105    4.88549324731266    5.55122640667152
C         6.31375025358787    3.94763289560322    5.08264159461178
C         7.65765801816065    4.26987326285097    4.98508974024563
C         8.11099084982115    5.53131706915762    5.31325933800332
C         9.56737587015470    5.92543722737628    5.23618388787713
C        10.20186825782635    5.75465055572004    6.62208304922418
C        10.36590084905925    5.15121716575058    4.19122475004074
C         8.93929846467919   10.16407311049195    2.85429212136776
C         8.12412968756179    9.58425146870569    1.84138206048093
C         7.11843863603047    8.52266592241775    2.22397168226376
C         7.66370721400278    7.14045009918386    1.85293657017668
C         5.74209017061491    8.74293197798693    1.59875441271979
C         8.29923635962463    9.97107687885451    0.52844861224650
C         9.25734285703127   10.90597379268404    0.16974165358860
C        10.06930813185447   11.45645984143753    1.14465674154627
C         9.92748583461536   11.10804317517332    2.47423392368341
C        10.84273044830219   11.68106298960143    3.53273263678841
C        12.28499653365589   11.21896376607267    3.30816247309142
C        10.76686945815741   13.20714515760564    3.58888643026336
H         9.91043901998926    8.10927778417662    8.97506782030876
H         9.02508867405584    9.55619441795855    9.47156518143062
H        10.80032516635418    9.51839776350156    9.59452566614763
H        10.52939964107307   12.18370286646739    6.72631844835801
H        11.06420735303766   11.81112767108300    8.38230694297017
H         9.33525884574813   12.06200678863399    8.02002312117580
H        12.01159428142582    9.79523029815253    5.85775323537378
H        11.81028002091408    8.28246962514983    6.74818071467631
H        12.47319061610819    9.71084914722808    7.57443972105928
H         7.66964701620009   12.39106562725622    4.91246847171523
H         6.38027644391671   11.93035495554329    2.83685883980182
H         4.86994416198793   12.24683890523459    3.71229890318007
H         5.91794812180522   10.89080057258451    4.19568218934346
H         7.42579037938384   14.18004533897432    3.29053436022459
H         5.84363354019733   14.63555904447044    3.90382028920199
H         7.28175148058201   14.90770987667539    4.89653866000062
H         4.90266212021491   14.63057077032931    5.92184389557871
H         3.89168754566014   14.53686819159681    8.14793897232465
H         4.39905017406158   12.67443962146716    9.66319220834909
H         6.63862258150584    9.81619741451842    8.64048992235274
H         7.03078750615157   10.14065043124650   11.07515511118577
H         6.12950624490881   11.65493689846870   11.04150399384611
H         7.65432880374461   11.53198506459365   10.17046978089064
H         4.07572670910948   10.40143999209495   10.20855944946460
H         4.96483883943169    8.87711063520002   10.17338606192598
H         4.17228806752732    9.47357590596659    8.71147005039624
H         5.44410944255059    7.74723618883789    7.25057622510977
H         3.77136174995229    8.92290777101336    5.79622282955045
H         5.37690790979985    8.74142575052377    5.06529617131397
H         4.03069859490903    7.68931944732972    4.55227114373043
H         3.09212899437679    7.37337325467548    7.68040640059389
H         2.96016598349777    6.18097913056459    6.39455839696098
H         3.90177693296067    5.81373863923273    7.84641480406126
H         4.36778544139967    4.60933216254785    5.63418735825719
H         5.97365825790777    2.96126178121478    4.80259566044836
H         8.35161649102055    3.52041333938767    4.63457923099729
H         9.59412943277988    7.00489185054873    4.97617961945198
H        11.26185378514910    6.00734076034687    6.60139197019109
H         9.69307169467500    6.39692968095144    7.34156429740152
H        10.10353484243021    4.72210636245387    6.95287019488446
H        11.34383730655734    5.61024347700950    4.05354630104519
H        10.52072490890989    4.12073394374632    4.50429717193596
H         9.84925857261219    5.14962068696427    3.23472165791180
H         7.00527515984420    8.55111716160803    3.32760076719793
H         6.99949009202102    6.35893849360417    2.21661729708162
H         7.76241039900939    7.04629635711517    0.77284316251924
H         8.64274450663386    6.99688130275952    2.30369688491216
H         5.03793864704373    8.01311656454173    1.99294970051759
H         5.77966270426784    8.62478998579520    0.51816669238817
H         5.37114362251493    9.73947507505805    1.82541874033467
H         7.68407866276311    9.52843730946114   -0.24161260547892
H         9.37676884998259   11.19308951613913   -0.86452603814315
H        10.82758724492802   12.17252373142062    0.85915080498970
H        10.49693360966931   11.28554624997824    4.50457688421034
H        12.66164845317977   11.59934850744434    2.36168736746959
H        12.33482954260075   10.13173283863604    3.27762733770557
H        12.93692609357515   11.58115518298078    4.10339138226952
H        11.08393415137251   13.64437419759802    2.64543019653759
H        11.41430825446656   13.59356492066731    4.37591137207332
H         9.74754107668421   13.52736180611338    3.78961082085990

