43
CSD_code = ZAFPOO | q = 0 | S = 0 | Stoichiometry = C16H21Cl2O2PRu | MND = 9
Ru        9.22567609612124    2.19154547912232    3.69299090576159
Cl        8.96309273561060   -0.12474265258205    3.28096546235918
Cl        6.87482245398755    2.44340652382096    3.47991236275084
P         8.90076283223518    2.38161458084283    1.45586845362158
O         8.11275991989863    3.66218618635764    0.95942278879699
O         8.11099536141043    1.19427458172264    0.76550406860124
C        11.40645035234755    2.87993807790754    3.95884191267262
C        10.52476745780748    3.99694308290479    3.95498489561819
H        10.72867435710602    4.83008698746226    3.28999785653619
C         9.45889861590544    4.07564220974903    4.86804051269273
H         8.83703860756339    4.96471433767999    4.89235730667324
C         9.23887376743378    3.04860312258073    5.83193989949752
C        10.08095255982488    1.93056272724770    5.80834428349608
H         9.96356405507438    1.14059204584981    6.54019894991628
C        11.13269627334373    1.83380227874399    4.85775043314908
H        11.79722387200414    0.97569949079630    4.89265787010352
C        12.64319001282921    2.86938904826714    3.11238673120391
H        13.47090110941029    3.29570123471324    3.68292755596176
H        12.50974335324148    3.46106929150977    2.20960028406558
H        12.91325609433140    1.85498232777728    2.82756110816782
C         8.15600466256965    3.21179312560160    6.87072321910144
H         7.45972789549057    3.97901850587500    6.51335313975221
C         8.79270739736346    3.69915668801573    8.17716350890742
H         9.49412760324185    2.95974766993713    8.55931390856592
H         8.02165362327920    3.86221092316901    8.92572594034791
H         9.32771315826258    4.63439474860568    8.02156602371928
C         7.36183669509154    1.92397304497044    7.09151751621229
H         7.01967696410255    1.52560533717453    6.13745749625181
H         6.48966548307355    2.13067800802926    7.70641744353836
H         7.95898491716087    1.16684890596020    7.59461862178725
C        10.41580384205496    2.52263667567057    0.46422763892833
C        11.23386541876022    1.40031546999733    0.42143988268201
H        10.92725664873633    0.50819254111616    0.95310800984613
C        12.41606364469611    1.43766372609048   -0.29445570890825
H        13.05068942110096    0.56496347813310   -0.34057097247809
C        12.78720071074827    2.60060573075955   -0.95240802332379
H        13.71126522705545    2.63207728286810   -1.51075606493332
C        11.97717906252107    3.72311501915011   -0.89565410648314
H        12.27071697958940    4.62715054794795   -1.40911475330906
C        10.79025703625160    3.68916431909144   -0.18300508057952
H        10.14525811258408    4.55302742229468   -0.13680766553698
H         8.13911656778706    0.39185475497561    1.32297931743234
H         7.26108904152893    3.70559511205330    1.42100706709214

