77
CSD_code = ZAFSAA | q = 0 | S = 0 | Stoichiometry = C39H34OP2Pd | MND = 5
Pd        1.41057982547608    0.05455883031703    2.21977940618762
P         0.88808038865140    0.91878077643738    4.29266791552117
P         3.02796887103255    1.56318547236727    1.58115578614981
O         2.13879951698736   -2.78736689727059    2.24210152228514
C         1.59634145744247   -1.17101591200087    0.55188722012451
C         1.31133284794809   -2.04402024731128    1.68956731500866
C         0.06830627955800   -1.56570683807376    2.29100611304127
C        -0.68952932909758    1.82582817405400    4.29354402173126
C        -1.08148433996039    2.71408216183874    5.29058006196158
C        -2.30232787492679    3.35778108023033    5.19884167653900
C        -3.13643480814911    3.12621811102693    4.11668201976437
C        -2.74756090101766    2.24994468259717    3.11668902723294
C        -1.52824022642332    1.60439738703511    3.20487905436183
C         2.01829161216482    2.06732874520956    5.14627263405883
C         3.02713976186032    1.57125922975772    5.96768499892235
C         3.97425002866863    2.42420067661717    6.50181302477025
C         3.92794986383622    3.77943648094959    6.22026822293683
C         2.92300235539131    4.28060033409145    5.40962327208698
C         1.97588329570951    3.43090846220742    4.86973480710173
C         0.69213450705914   -0.37788660172613    5.56216603024597
C        -0.07709113302034   -0.21448796611492    6.70832574377390
C        -0.14961653174464   -1.23537206431180    7.63920522040535
C         0.54579241186799   -2.41678994691438    7.43667817841981
C         1.30985883517641   -2.58442696231364    6.29336912419758
C         1.38145798504037   -1.57083297846303    5.35497848044472
C         2.28542745063404    3.22469821286648    1.66754005405967
C         2.90551105222913    4.41760809085987    2.01319371636139
C         2.16943276722845    5.59025264897025    2.04566100143987
C         0.81921224547819    5.58245978413972    1.73697661510212
C         0.19496838190135    4.39569806757680    1.38439046419172
C         0.92675932013359    3.22471792096706    1.34935126818070
C         3.91339150788620    1.61091357855446   -0.01055493430841
C         3.67827656010250    2.57787735915761   -0.98067640553553
C         4.35526948774202    2.52118466279460   -2.18663907646224
C         5.25825169528567    1.50103764389709   -2.43369025555141
C         5.48516470755091    0.52741647495324   -1.47274873454920
C         4.81409778799203    0.57861230152232   -0.26691520937431
C         4.43846083540564    1.40352378363677    2.72208517663232
C         4.42809271221017    0.24382912539184    3.49501346392821
C         5.46956684522203   -0.02624558796548    4.36301515475617
C         6.52356044891679    0.86591095101647    4.46944201628157
C         6.55373650780730    2.00416941616378    3.67964799081138
C         5.52550403574353    2.26696273434392    2.79290837287659
H         0.78658456456325   -0.98538142279293   -0.15863370728911
H         2.57044324355927   -1.29898755476849    0.07620208968238
H        -0.24154652169794   -2.03738186959099    3.22380329776512
H        -0.76238141369557   -1.39354889944116    1.60038563987639
H        -0.42561447253578    2.91502310099672    6.12664443909380
H        -2.60449648123026    4.04635953988812    5.97480391708465
H        -4.08753240018603    3.63405714290444    4.05160461940296
H        -3.39470205934619    2.07409281970177    2.26962643727304
H        -1.20235436258913    0.91582413235377    2.42351737782808
H         3.06381690245528    0.51368545087097    6.18964839443446
H         4.75331722660094    2.03002437339742    7.13761126507894
H         4.67123322112786    4.44424863410385    6.63492540306003
H         2.87687133751357    5.33803515151373    5.19299492630277
H         1.19200545097894    3.82464873907167    4.23769618356676
H        -0.62925239958254    0.70039215500523    6.86649317296619
H        -0.75446751200215   -1.10950884762556    8.52579271521499
H         0.48283144506224   -3.21033205959006    8.16695627807881
H         1.84110534992181   -3.50865475174856    6.12235179280622
H         1.95083652552707   -1.72314483536612    4.44054075131079
H         3.95125183475733    4.43669153462684    2.27552826046873
H         2.65356415133373    6.51699037199266    2.31829094693874
H         0.25206042254996    6.50093961216160    1.77331443449557
H        -0.85876844505174    4.38572718322904    1.14701119618329
H         0.45331410056277    2.27774017049805    1.07351442499465
H         2.96830429551039    3.37169311317714   -0.79308616518707
H         4.17391428689582    3.27624159827552   -2.93786267795698
H         5.78196587646492    1.46042492363434   -3.37734070458324
H         6.18300038078159   -0.27359032593803   -1.66785573138691
H         4.97758216165211   -0.18239598966983    0.48621922175763
H         3.60081430459515   -0.46560643956432    3.38203257110157
H         5.46162035475482   -0.93158963608656    4.95171706520529
H         7.33474267787723    0.66544551619470    5.15387020326789
H         7.39179484122847    2.68307742596044    3.74422796724357
H         5.58327206250316    3.12682858342353    2.14145243781276

