60
CSD_code = ZAFVOR | q = 0 | S = 0 | Stoichiometry = C22H33MoN3O | MND = 6
Mo        5.66988662660011    3.96530728580054    2.03454563978448
N         6.57224854430953    5.12050172725447    1.13421025565488
O         6.73459219459967    2.53215549544971    2.20572187191908
C         8.02781204819727    2.18544256097246    1.83511410768904
C         8.35389697182229    0.76473723086112    2.33226922934653
C         8.12136825611074    2.25411247685984    0.30351967822149
C         8.98946778898668    3.20655729311472    2.46056256975613
C         4.26561365262072    3.36419776844958    0.56470943879471
C         4.11337797013949    2.04873114847632    0.11972322669654
C         3.15085196501719    1.69437208553787   -0.81430532252814
C         2.29979885488477    2.65338305718504   -1.33608762651722
C         2.43315136154709    3.97281104365893   -0.93550980622032
C         3.40631988234637    4.31183362892306   -0.00935328289493
C         3.66798577848734    5.72288893122481    0.42549770690732
N         3.94680504721820    5.74015234118443    1.86949147992933
C         2.67595382118188    5.57949170405944    2.57244861653313
C         4.49379731232660    7.05166770559425    2.21956950764902
C         5.68732628604914    4.74121372898307    4.03525476423941
C         6.68146655625923    5.65314271199768    4.41346864077417
C         6.93829303357161    5.98679172972847    5.73461409832920
C         6.19356812868293    5.40941519889168    6.74695943439098
C         5.21053778357586    4.49400244385239    6.41796024859924
C         4.96222211442101    4.15974528593618    5.09160914491457
C         3.86637629163526    3.15827875002772    4.80744809763979
N         4.24278247745451    2.21328728785460    3.76145898712911
C         5.19855928678498    1.26119006906862    4.30549707094402
C         3.07366143355783    1.50028144703621    3.27610776328796
H         7.64559237627527    0.05026622305803    1.91485832912156
H         9.35700569747512    0.48011561604722    2.02636065984693
H         8.29248373759547    0.72364276109245    3.41871320419170
H         7.77782984791005    3.24426852060746   -0.00357410487551
H         9.14135918570676    2.09259177091755   -0.03446718426705
H         7.47259561180629    1.50115681213617   -0.14444391303533
H         8.89228199809397    3.18593772020444    3.54779476798027
H        10.02002748661612    2.99524066977835    2.18799720669104
H         8.70295646028119    4.19514019562919    2.09808146194386
H         4.77307496151207    1.27406917937322    0.50324683425922
H         3.06291738867146    0.66577368034620   -1.13819301438755
H         1.54362048949174    2.37764296016282   -2.05685540904890
H         1.78681689164556    4.73491068989610   -1.35124255171482
H         4.58097773079384    6.06326383309415   -0.07759952062358
H         2.83539310481555    6.40194362894833    0.17699257938515
H         2.83662173529225    5.64785036018100    3.64826303968519
H         1.96706218686785    6.37098464997711    2.28318812342091
H         2.22984700712966    4.61585917135487    2.32066794571590
H         4.64377320873095    7.11831089078416    3.29695932672672
H         5.45788731546763    7.16212130681210    1.72695128764144
H         3.81465286695878    7.85507550053155    1.90168700298780
H         7.26423291372074    6.12968659861131    3.63413715198593
H         7.71731085674791    6.69760102652545    5.97266052620751
H         6.37713913594306    5.66135263809011    7.78163924842780
H         4.62822567008522    4.02927935549357    7.20440846292683
H         3.60658012385792    2.61934451682166    5.73818453007946
H         2.96092873350325    3.68125148350325    4.48398436835506
H         4.75367770665309    0.66311039053660    5.11811698074514
H         5.53343460668601    0.58720655304042    3.51909278114814
H         6.06145040043838    1.79791049096521    4.70103829347126
H         2.37535796851696    2.19651485005033    2.81205146624658
H         3.37538412838844    0.77279023910779    2.52495920071583
H         2.55157899793100    0.96639357833834    4.08623537704967

