60
CSD_code = ZAFWEI | q = 0 | S = 0 | Stoichiometry = C30H22NO5PW | MND = 6
W         2.23595108729190    0.27212961909627    3.07644294581328
P         4.35930082684330    0.56160121486884    4.29109645026255
O         3.06855174369982    3.13262656976147    2.86969452668758
O         0.67435156144249    1.81193032716231    5.31443918360117
O         3.62375762529777   -1.56733651026110    0.95569731433911
O         1.46254247224913   -2.25484195653690    4.75526046145750
O        -0.42851900669954   -0.08546736495812    1.48788494189100
N         3.03135886141600    2.42342483912262    0.81660159077457
C         2.76755825357090    2.08276645027723    2.09378005175214
C         2.80643229785995    1.60445206012676   -0.34019730890054
C         3.55588414421529    3.69980728350641    0.77041883527845
C         4.03088885347913    4.50302598988257   -0.25130835175960
C         4.51614323650204    5.74865396368613    0.11006375379155
C         4.52431599707684    6.17688128597309    1.43338281623395
C         4.04732049376839    5.37811491400283    2.46045051514076
C         3.56741663457392    4.13515199974507    2.09991943775284
C         5.51860995760015    1.76059234263017    3.53591608899100
C         5.80214398608504    1.53832293781459    2.18976093754497
C         6.60483070039901    2.41458112159129    1.48593545624268
C         7.13662612488693    3.52576360559234    2.12172886574176
C         6.87823463167752    3.73968279499524    3.46412180274491
C         6.07491565760345    2.86161713153043    4.17310743511911
C         4.19389400598266    1.14253083403025    6.00555720033091
C         3.64000796163544    2.40473685955730    6.21561780920251
C         3.39963255048770    2.85551937470107    7.49887324519141
C         3.68958772844428    2.04342573450695    8.58446696135400
C         4.21426490826099    0.77872665404726    8.38068547352175
C         4.46372834760937    0.32475820420288    7.09703611010153
C         5.52153108266602   -0.83307838431287    4.47767568011259
C         5.11949628037101   -2.12225296750873    4.15491482164346
C         5.99985587597570   -3.18145295205328    4.29720417710857
C         7.28506296416917   -2.95704398658187    4.76013654269827
C         7.69166364565961   -1.67125801577555    5.08350263180996
C         6.81606531717017   -0.61191094712243    4.94357848620053
C         1.27265173252054    1.30968246860193    4.48017697389813
C         3.14779969424027   -0.85246149936563    1.71932973586686
C         1.78087007795725   -1.34913542959305    4.12724248421003
C         0.54802177540304    0.06580274118850    2.07324413085215
H         2.32335316225184    2.19580764334221   -1.11924568217129
H         3.75160468097840    1.21454483320416   -0.72510675855826
H         2.15899647432659    0.77247290772840   -0.06384652387110
H         4.03074405180495    4.17476621628200   -1.27829597040971
H         4.89996271969899    6.40472779803582   -0.65604749287272
H         4.91391956822456    7.15549393405495    1.66663452395470
H         4.05372331370912    5.70178707841950    3.48788999860983
H         5.37799493988094    0.66754313572400    1.70241920099418
H         6.81520462403990    2.23794944565188    0.44073633170450
H         7.75236943312994    4.22087503926238    1.57084831212954
H         7.30218625360436    4.59838925165497    3.96433606032369
H         5.87865079788345    3.03918870539833    5.22115849955873
H         3.39154992109723    3.02329753345773    5.36307631054279
H         2.97475361029321    3.83649546590699    7.65537523911194
H         3.49504302298348    2.39313240876295    9.58762424973924
H         4.42540021550863    0.13856053698926    9.22492403199544
H         4.86287036437642   -0.66815093112984    6.94267545299379
H         4.11383978134713   -2.29090024731203    3.79311842718356
H         5.68137253608519   -4.18219534624024    4.04539516469609
H         7.97250194356436   -3.78286596421742    4.86971662552357
H         8.69454940455565   -1.49618463704703    5.44539346138712
H         7.13025909168635    0.39199588385684    5.19708032243545

