61
CSD_code = ZAFWIM | q = 0 | S = 0 | Stoichiometry = C24H34Cl2Ti | MND = 12
Ti       12.56689976922487    7.19771753854490    2.45101725364630
Cl       12.05110458723987    7.85192901937322    0.41355178862796
Cl       12.97282152693650    9.26333158830286    3.11378716204209
C        12.55082639962489    4.41483020073586    3.42487575200174
C        11.53272075087685    5.52764414281131    3.57949412485603
C        10.63755685948447    6.00520055171168    2.58695862642514
C        10.15894243215019    7.28414639110820    2.98446945548107
C        10.79167507806197    7.60101591439456    4.20405521243274
C        11.66255892342682    6.55641207693536    4.54914003922497
C         9.03847254828025    8.09039074782217    2.36688807258868
C         9.49067051661821    9.54345481852256    2.16849067008819
C         7.84453036138304    8.05393360786822    3.33615798641200
C         8.60318779707281    7.50911829935239    1.01859863905036
C        13.67850152458991    5.28376714609239    2.91799671832014
C        14.44385907742067    6.38890817925968    3.36878766498712
C        15.00474347023985    7.00212169214193    2.20444255556108
C        14.53460276786133    6.30251575334036    1.06571641977408
C        13.69200980269385    5.27173213535508    1.51053928422609
C        16.11449939856466    8.03006793554525    2.14974828127290
C        16.34343072429423    8.69093405646227    3.51202442954122
C        15.78831223822908    9.10570644922992    1.10500018710674
C        17.40117030676786    7.29353567330642    1.73572605278163
C        12.25457819871935    3.49914231184395    2.20576045017153
C        12.80788313625299    3.63120381525253    4.70772221257475
C        13.00398052736499    4.05633172921107    0.95344840853496
C        12.08361948657820    4.35894284058427   -0.23044268570836
C        14.07898426642667    3.05437520085441    0.50096764274964
H        12.22642615377630    6.50109876970584    5.47182002460292
H        10.61511849240865    8.48233466295411    4.80405944094389
H        10.22612670968664    5.42784062585010    1.77328818612861
H        11.18184245552546    3.42575893671863    2.02871227402103
H        12.61348584802939    2.49234977402736    2.42316777253609
H        14.80891716747604    6.50365637032319    0.04040360269896
H        14.72710882830324    6.60886953284829    4.39029423621520
H        10.34627110382071    9.58386112173129    1.49393115603004
H         9.77784790495093    9.99768467646297    3.11464879266796
H         8.68287320535244   10.13130495360399    1.73767383638647
H         7.53236402618862    7.02700831817488    3.51554917516851
H         7.00541422186079    8.60277640223312    2.91464859383143
H         8.10654810782798    8.50386848794468    4.29047788518622
H         9.44129641322195    7.48498336136614    0.32531959783145
H         7.82067094881433    8.12983794766786    0.58776251023996
H         8.20632549479746    6.50299518483217    1.13907227772468
H        13.06771056501296    4.29935658234739    5.52556355399112
H        13.63090340635749    2.93417424313777    4.56298288782918
H        11.91887470030012    3.07058097015878    4.98976294399667
H        14.75555636856745    2.82533714795906    1.32164392366147
H        14.66365161024091    3.47199570432986   -0.31540260794676
H        13.61500430194818    2.13192288582988    0.15782875192463
H        11.42238558723037    5.19708027084057   -0.01734130004795
H        11.48778038524421    3.48384271087976   -0.48321012964379
H        12.68062517064746    4.62858869828276   -1.09920411873154
H        16.67520224819679    7.95940544665355    4.24615800476106
H        15.43131540031049    9.16525231529287    3.86631422844252
H        17.11488883654056    9.45280154497523    3.42473480285929
H        15.70653511661052    8.67351541215192    0.11001105352468
H        16.57407174089345    9.85778267327425    1.08570118420826
H        14.84557741671447    9.59546912492535    1.34638951406129
H        17.63685562482015    6.50874401718784    2.45170466570351
H        18.23428746498119    7.99184775141829    1.70017112918029
H        17.28899449697348    6.83866355795447    0.75463974524513

