85
CSD_code = ZAGGIA | q = 0 | S = 0 | Stoichiometry = C27H39O12S6Sc | MND = 6
Sc       11.95347097677352   11.59181696426433   21.04409995863069
S        12.69569936829249   13.63008401083740   19.09076920300813
S        14.53795186187300   10.34579714011815   20.38845447676937
S         9.31533631200112   10.27183244308554   20.97970680598295
S        14.53018727145247   13.08144967313785   22.08196184878073
S        11.77112889564252    9.32217363904859   23.42168857213748
S         9.53939947554558   13.38522762459351   21.55961864434346
O        11.54060334087279   13.13178347714587   19.90594219936008
O        12.85043136045126   12.98127633838145   17.82555935510016
O        13.88928572970137   13.80195405681818   19.91353079414661
O        13.39230194691920   11.14891168896674   19.89937217356391
O        15.71503390930443   10.41131712675061   19.56952573216076
O        14.80978438529843   10.63848898314258   21.80201953410743
O        10.53974628814924   10.53715311350154   20.19463832441416
O         9.56741683288715    9.84520352943839   22.35028924401042
O         8.33752161158474   11.34559463478674   20.87210946340933
O        13.09157807798108   12.67951102450685   22.28766538208412
O        12.20742238577536    9.92561539443120   22.12651460810277
O        10.45578964160690   12.39576260629656   22.20894130620605
C        12.16612012702667   15.31459858201813   18.72233823598492
C        13.09315186650939   16.33334516020948   18.60379106102592
H        14.13553066263541   16.09654572155499   18.74664529451067
C        12.67129522720920   17.61955687768878   18.31206798325120
H        13.39556647764461   18.41579003668180   18.21701854213224
C        11.32022204133263   17.89991723033076   18.13472079549294
C        10.40009289809830   16.86454890735877   18.25865175284457
H         9.34774471491057   17.06914275849173   18.12193340660484
C        10.81995917229855   15.57689143597651   18.54876221602253
H        10.12083027001664   14.76157569363538   18.65448152853703
C        10.87182933944397   19.28873662253336   17.79231448908439
H         9.83072253624192   19.44106600166342   18.06483595221165
H        10.96838271979616   19.45371892948752   16.71925606491359
H        11.48427697001872   20.03015222304841   18.29994284112617
C        13.91613005296225    8.66020154301755   20.34015416150773
C        14.47761539525539    7.67099979033059   21.12520168279266
H        15.33914258629345    7.91465017727174   21.72690909122263
C        13.92693325973184    6.39976952945958   21.12895053053672
H        14.36295930858336    5.62468419052125   21.74377622624425
C        12.81448753422087    6.10790374837986   20.34700451133478
C        12.27700102706933    7.10874980297163   19.54451136811529
H        11.42026877078500    6.89096967765732   18.92288936894051
C        12.82424882037118    8.38134259305800   19.53725363508521
H        12.41211303046544    9.16870936602384   18.91973779526117
C        12.19392714652765    4.74304056086240   20.38533123077153
H        12.95162997648790    3.97628823745253   20.52888449311644
H        11.65400109363425    4.53855252541538   19.46457212983605
H        11.48968277980682    4.67959762463576   21.21514638166928
C         8.64132651060315    8.84532718186041   20.13931676609316
C         9.05477858842526    7.58729937483187   20.53125593302580
H         9.70600667761405    7.50664640016273   21.38746623343905
C         8.62302286524100    6.47437434707972   19.82805134206117
H         8.94038586619254    5.48826029955290   20.13509361552729
C         7.78570280180828    6.61262092610084   18.72697054568845
C         7.38346110330950    7.88967792649783   18.34513872302305
H         6.73315497723497    8.00640370316285   17.49033456217345
C         7.81114486771125    9.00371844475267   19.04600017618777
H         7.50961128180637   10.00122516527280   18.77014058329135
C         7.33156198226759    5.41601637923505   17.94689688482008
H         7.83710409556010    5.38536791222522   16.98204413414052
H         6.26126683696392    5.46532613790840   17.75818731347335
H         7.55284901880632    4.49510594448086   18.47960604644330
C        14.42402378841780   14.88799865928784   22.47099106076762
H        14.03664664497414   15.36523854619432   21.58098731560316
H        15.41475738150898   15.26398872954069   22.69393308091800
H        13.75366789532339   15.03477082689310   23.30898977109036
C        15.21163538333357   12.71063667904608   23.76781673248610
H        14.50341309073829   13.00810429342459   24.53126290415420
H        16.15241993323574   13.23242803605510   23.88954504641608
H        15.37760880599303   11.64264186091334   23.78793449103750
C        11.45922938761532   10.75377470861111   24.51206036686347
H        12.20498139529538   11.50729686574179   24.25744156904431
H        11.50371216782800   10.46474845318269   25.55751318854121
H        10.46773612451531   11.11266448561496   24.25178668976880
C        13.42179985479188    8.91031269749841   24.16848619339664
H        13.65514361647063    7.87783641719039   23.93275550135038
H        13.42634525818859    9.04800558330494   25.24247151048153
H        14.13655891892204    9.56265351792621   23.67373939998807
C         8.20140697057995   13.53413486868705   22.81776054725334
H         7.60208344421598   12.63906148879063   22.70839199158173
H         7.60860284996495   14.41672133210241   22.61065621166564
H         8.64094904991843   13.57941347416129   23.80624439575950
C        10.34792420448809   14.97357916388768   22.04848044093086
H        10.50541873501253   14.99206225474826   23.12058073581419
H         9.73878029339521   15.81080320327832   21.72749638324036
H        11.30132185417336   14.97855469376225   21.52898121588342

