77
CSD_code = ZAGLUR | q = 1 | S = 0 | Stoichiometry = C22H50IrN2P2(1+) | MND = 6
C         4.14330257006463    2.23202690478933    1.76222200232287
H         4.90831592332813    2.11770475610164    2.53130392432407
H         4.65925266252053    2.33271726110977    0.79426785760221
C         3.24042801666329    1.00088082941223    1.72217501410793
H         3.84440147228103    0.10010363471942    1.60018427425012
H         2.57401141328265    1.07810851890400    0.85807638709323
C         0.75423996059701   -0.26628850352719    2.57817529926335
C        -0.20539928136597    0.61112806966720    1.77168701910265
H         0.29825293795240    1.10891185013877    0.94418506489280
H        -0.66660588965399    1.35359353738367    2.41778273445528
H        -0.99413640508634   -0.01042284733451    1.35053661565404
C         1.21890627510128   -1.40354991846440    1.66739148056910
H         0.34923965222930   -1.99947657093753    1.39334913493406
H         1.92919731568947   -2.06658806062324    2.14394187341978
H         1.65914576454649   -1.02753459634867    0.74679573724323
C        -0.03444905233459   -0.80620407263869    3.77139277894174
H        -0.98719057155110   -1.20676701193701    3.42865540931395
H        -0.23740134135284   -0.00353012155550    4.47971702535149
H         0.49071780069340   -1.60819968092280    4.27979418079808
C         3.19197298769429   -0.12150030024171    4.48841247013662
C         4.57659378506556    0.52411954743889    4.58984139492969
H         5.17673784972389    0.32277273165497    3.70527205258558
H         5.10343492598193    0.10120925353205    5.44307780531630
H         4.50074217260040    1.59524385683652    4.75272266799802
C         3.41333776593118   -1.59245365149929    4.13935977906386
H         2.49934022560824   -2.17416564014487    4.19469595463069
H         4.10587369026368   -2.01493047287377    4.86623655551812
H         3.86329299331847   -1.71299006491645    3.15578559322329
C         2.50475383279449   -0.00859400419921    5.85069158991999
H         2.26113986272420    1.02888919552173    6.06902499512735
H         3.17083245500918   -0.37838422556458    6.62733356146780
H         1.59156723275811   -0.59141300187234    5.89323577756482
C         4.24165487517191    4.61775115458260    2.22908191473706
H         4.75277081051595    4.85595953524593    1.28293585933492
H         5.00955399555522    4.36812223718692    2.96230518057852
C         3.44443422482380    5.83724732210896    2.68762726124537
H         2.77930990671241    6.15141080035135    1.87787694810999
H         4.12233126613081    6.66451599096979    2.90477338151780
C         1.07262948732542    6.87817758303341    4.03630088659713
C         1.64250779647360    8.23536673410756    3.62157310243821
H         2.04915931846311    8.20945575092154    2.61327023368510
H         2.40934551236777    8.59784082619829    4.29375124325255
H         0.83213784574927    8.96317804009411    3.62779487426457
C         0.04222086908558    6.46645544633836    2.98287551260441
H         0.50264570085517    6.29326399836232    2.01125842123681
H        -0.68855940228863    7.26476245892595    2.86280272107311
H        -0.48317468547666    5.57025403826448    3.30268758534668
C         0.32927700319733    6.97842010255199    5.36851108663855
H        -0.58265348258074    7.55834618373714    5.23559992844463
H         0.92104129359297    7.47446049423526    6.13086927058285
H         0.05264472303754    5.98413057972460    5.71791024076620
C         3.47334893232214    5.79865327298127    5.67358037041511
C         4.79348941893809    5.04737741127677    5.48077301940311
H         4.62025729380795    4.00860801616579    5.21510387942356
H         5.34694053645240    5.05633680254435    6.41781312049370
H         5.41867444799439    5.52558563728990    4.73000538855486
C         3.82910645100197    7.26512941158441    5.91327341234397
H         4.29611074643492    7.71744693143413    5.04048106394192
H         4.55098656073823    7.31216134075986    6.72761426705048
H         2.97093120511409    7.85682459361892    6.21368891169309
C         2.76764353537341    5.22690998920083    6.90483645893216
H         1.91162084384438    5.82510991057218    7.19584786237218
H         3.45870851500272    5.20647940454189    7.74486882898039
H         2.42813039627378    4.21167835791471    6.71147993804317
C        -0.16142976806893    3.74752231375252    1.38882713592968
C        -1.11189106877728    4.00194938192365    0.35392399154820
H        -0.60552518379157    4.20977361843073   -0.58912040893100
H        -1.72481632152616    4.86169296687200    0.62646322584373
H        -1.75631945500266    3.13120146189931    0.22855644244426
H         2.75898429896370    3.62275893391279    1.28557403237167
H         0.75085805495310    3.01951631698137    4.76817084204619
H         2.84119476404534    2.91262998738853    4.82329120047183
N         3.38215031707133    3.44288444991282    2.07426376760885
N         0.58371971699407    3.53907969126260    2.24016585312018
P         2.14871179919167    0.86172627969752    3.22615343207222
P         2.35760447948822    5.47442960080388    4.15734967400227
Ir        1.85718342164298    3.18279743840491    3.70958462622859

