67
CSD_code = ZAGMEC | q = -1 | S = 0 | Stoichiometry = C26H34N3O3Pd(1-) | MND = 4
H        10.64894988450396    7.94455641709315    7.69513961373689
C        11.34247109855438   10.18896345533750    7.96784585417632
C        11.60860240629296   11.52670273670229    8.52377606802201
C        11.51756165718304   12.40927920652668    7.49947423281782
C        11.22154047690790   11.63919223362853    6.30192340548748
C        11.15760966270715   12.12663080132488    5.02780292160459
H        11.25983133168594   13.19441264856289    4.89428046942260
C        10.99864277543418   11.36646278982770    3.84598455366709
C        10.92455504767163   11.90709883439988    2.53265939373125
C        10.77741882409808   10.83682874659690    1.67045857637776
C        10.78128830898626    9.66249035213962    2.47261179944693
C        10.67118186620645    8.34211978266581    1.97757283466763
H        10.61632331162897    8.24167165682777    0.90282626590501
C        10.65620031673053    7.19716059392905    2.72185171120215
C        10.66990886580833    5.83766046702228    2.20567264323350
C        10.77953476548776    5.01075153934725    3.27317215926843
C        10.82240411567232    5.85926310475319    4.47633748122740
C        11.93956736786013   11.73703456029524    9.96222299302701
H        11.29515462761379   11.09059496708589   10.56395800161001
H        11.75821907761992   12.77742419705225   10.24867208599380
C        13.39729864996248   11.36601205022169   10.24254338017353
H        14.06994511144501   11.99132214240676    9.65776757597060
H        13.56262575164187   10.32809132439747    9.96562172793080
H        13.63326192340923   11.49090763518516   11.29886141747428
C        11.73751645916264   13.88728050288000    7.52764553287462
H        11.53506414629052   14.26705420209066    8.53267049861814
H        11.04509662454022   14.37703191084620    6.83817089728730
C        13.17469266205940   14.24007926385894    7.13737417146848
H        13.39904703193141   13.85536051656791    6.14536026753197
H        13.87390049401858   13.79275815704184    7.84023561482452
H        13.32262745836662   15.31969135700177    7.13871974186000
C        10.93904549692463   13.36169266070931    2.18396394844545
H        11.24738991177818   13.48838697285846    1.14323666460477
H        11.66625847719470   13.88800939593863    2.80819147198791
C         9.55700543640206   13.98982675697257    2.38145255423479
H         8.82705070602268   13.49475166049570    1.74436033071944
H         9.57178958888529   15.05172931564488    2.13629431506739
H         9.23766574965902   13.87197127693395    3.41413864367691
C        10.67852735332249   10.87824427803872    0.17815376518574
H        10.28708548486852   11.84838888930502   -0.13800483291739
H         9.97962024627501   10.11318927811101   -0.16979120643867
C        12.04421857939862   10.64924946089411   -0.47491835416679
H        11.96542464424283   10.67031986665686   -1.56180673537177
H        12.44753018157131    9.68617920439524   -0.17111867105669
H        12.74349021257174   11.42145442870308   -0.16091881279699
C        10.55392782453261    5.47347278446357    0.76051738678406
H        10.92112839147616    4.45565891483938    0.60851086396143
H        11.17143491370421    6.14512214517957    0.15847936520300
C         9.10014161083672    5.56402864313779    0.29082401164555
H         9.01728641723883    5.31197376499702   -0.76605925459068
H         8.71911520844956    6.57088765918240    0.44321706019767
H         8.47970630832436    4.87738319576479    0.86290759507013
C        10.88823051136717    3.52475207172456    3.34145641772603
H        10.42790261313878    3.06522162842256    2.46178694081494
H        10.35726691812980    3.18163769798913    4.23301632959662
C        12.35337075130312    3.09536983572640    3.44835924190637
H        12.91322806724007    3.43244650579865    2.57712764457211
H        12.43589090776769    2.01138284229399    3.52103270911641
H        12.79527172403986    3.54107638207645    4.33590699067192
N        11.08736193833774   10.31330593310791    6.64623879544812
N        10.92379117066173   10.00839469928827    3.78193654671112
N        10.71184558502661    7.15177070378882    4.09640114885103
O        11.36105594787526    9.11949426432727    8.61617641943917
O        10.94569964898084    5.44591980221765    5.65013692931316
O        10.10756638800382    7.54102496719290    6.96191601343642
H        10.51054876337839    6.67672593009718    6.67456031730188
Pd       10.75238421958729    8.77586802910823    5.33830355500949

