49
CSD_code = ZAGQAZ | q = 0 | S = 0 | Stoichiometry = C14H28O6W | MND = 6
W         8.41495228905885    8.76388548003444    8.45172582645642
O         7.28090094428370   10.29964674428679    8.64348449443463
O         9.08154550017849    9.71416312085118    6.92624734871237
O         6.90199428433973    7.96832005536918    7.64262848772910
O         9.27233597749875    7.19467230973770    7.88569836262327
O         9.94730370981362    9.45234790007909    9.32082131139603
O         7.96665414134667    8.18411139212293   10.17875835925381
C         7.28986881272505   11.10071669258679    7.50609236040473
C         8.73826724152292   11.06162339146134    6.97957837143506
C         6.03883253746406    6.14339382874253    6.31292692955872
C         7.05383180284501    6.59937114493825    7.37415656771531
C         8.55452665912205    6.45994351212748    6.92578895824717
C         9.06780047967898    5.01149034432487    6.87665221415903
C         6.81540250328146    5.82727083550110    8.68907582520198
C         8.75152124997060    7.13440574341244    5.55366850253842
C        11.07833621086066    9.86229160355302   11.41673607422430
C        10.15550643571031    8.93525839324193   10.60863118171568
C         8.70727818209600    8.79464495633306   11.20585009463372
C         8.63205567136349    7.94720691493061   12.48656007941066
C        10.81032738621290    7.54559739552858   10.46178920113774
C         8.11304731338491   10.19298719301058   11.46566477984103
H         6.61217588795058   10.66465053661530    6.74044603398663
H         6.95913562511110   12.12739008416452    7.74625459700387
H         9.40332855643488   11.58377451227302    7.70213142729451
H         8.83586528998573   11.53141476360687    5.98429547446521
H         5.03872227905299    6.19663000564458    6.73554367245938
H         6.07670228580976    6.80161899391438    5.45039339333335
H         6.23580746975712    5.12170326365821    5.99972889429531
H         8.43596996091103    4.39725005225382    6.24115138694709
H        10.07905921135161    5.00882990672487    6.47771592299650
H         9.09684172514816    4.58847282068313    7.87649117307381
H         5.85696351352362    6.14135187948708    9.10075420500150
H         6.80191968360683    4.75271360077277    8.52436581387080
H         7.60349221405143    6.09719540901319    9.40162096058942
H         8.24603476224475    8.10653329957745    5.56723796961278
H         9.81731264291755    7.30215686943550    5.40259928750968
H         8.36461561500163    6.51458270555247    4.74841794139128
H        11.13832723469032    9.54441658731277   12.45407600495648
H        12.07397809815783    9.83606332558493   10.98106016811959
H        10.71627698950960   10.88480554970367   11.37046805628332
H         7.61556607315528    7.97807920924028   12.87077734836615
H         8.88031724191065    6.91274353069714   12.26811475171458
H         9.30832164047101    8.33003073203071   13.24578652420557
H        10.10124959653042    6.87629054661616    9.96075479693243
H        11.69183026088185    7.64814704248449    9.82989909204398
H        11.10381262106587    7.13794510068443   11.42593269088370
H         8.53403047490673   10.64233337515100   12.36178340661938
H         8.30933079092575   10.82293566770368   10.59104681114908
H         7.03462292217781   10.09219167723949   11.58241686406590

