32
CSD_code = ZAGRUU | q = 0 | S = 0 | Stoichiometry = C8H16ClCuN4S2 | MND = 3
Cu       -2.96876865859308    0.58372038166450   10.16890464381297
Cl       -2.96959559460190    2.86130755617870   10.16904544185379
S        -2.55982776551788   -0.52326611501386   12.15039105006592
N        -2.10093979294611    0.48863267000217   14.57387298044218
N        -2.64065139261739    2.00108238103003   13.08026211896136
C        -2.43155338200415    0.70041615333940   13.28740908162887
C        -2.12213772298413    1.72152030110266   15.33573737181468
C        -2.37429141244738    2.79311084515874   14.26045040029892
C        -1.93206103142642   -0.78315517685446   15.20711335425039
H        -2.77020102372110    2.40733225912873   12.14851040353040
H        -2.92269499207897    1.69051574991093   16.08492856932886
H        -1.16945605301131    1.86298749945661   15.85551136752450
H        -3.23214790337888    3.42938576281138   14.49311317274044
H        -1.50060402608428    3.43462534906090   14.10343503585120
H        -1.96887473871935   -1.55202899685137   14.43833800162552
H        -0.96737911538160   -0.82380661662227   15.71789610789127
H        -2.72769524991204   -0.96202807100486   15.93620571496291
S        -3.37704078272132   -0.52330070298225    8.18732570981070
C        -3.50445803427742    0.70035519534072    7.05020223304742
N        -3.83455346736271    0.48861136337279    5.76359381455500
N        -3.29517559347881    2.00098708185774    7.25741865727985
C        -3.81270477980740    1.72148248370727    5.00171861473525
C        -4.00318127020726   -0.78314732843531    5.13025635901411
C        -3.56090740100398    2.79305603163542    6.07710905179596
H        -3.16645231537974    2.40725029563445    8.18928920285194
H        -3.01176936107824    1.69030335662008    4.25294723875016
H        -4.76508685838290    1.86312232406522    4.48145180730805
H        -3.96683926561565   -1.55203984636495    5.89903675252383
H        -4.96757726359608   -0.82370395883804    4.61894440597275
H        -3.20716232273220   -0.96204614912974    4.40160242583497
H        -2.70286240778377    3.42927382521641    5.84485068296636
H        -4.43464902114962    3.43464409580311    6.23372822696956

