63
CSD_code = ZAGSOS | q = 0 | S = 0 | Stoichiometry = C20H36Cl2N4Ru | MND = 6
Ru        9.86886434075099    2.82671825557139   12.17456698943710
Cl        8.95370280386273    4.62801654556031   13.56523549184600
Cl       10.78267948965435    1.04717840702110   10.78774865788090
N         8.56857840795394    4.25926516747557    9.78548293983232
N         7.21282846549108    1.29568133019245   12.43429121897410
N        11.07132030963754    1.76374172615584   14.79523669626954
N        12.39765671626163    4.56243291048350   11.96140376806734
C         9.09771798850892    3.68756507459327   10.64915422923110
C         8.23670228900605    1.84282418974601   12.36438651006735
C        10.61098176368402    2.07901768924768   13.77473933990463
C        11.46414000166963    3.86962530675637   11.99471941306145
C         7.88887398392194    4.97040371274875    8.77646475896940
C         8.37488021434783    4.45748969049431    7.41817192666991
H         8.18259984832803    3.39100944665025    7.32557466980949
H         9.44474076764001    4.62190613916418    7.31223364857570
H         7.85729691117655    4.98044841312339    6.61809189626736
C         6.38911393174883    4.71369611976967    8.95430300812438
H         6.06812445756056    5.04078427686703    9.94094432976294
H         6.17328644770881    3.65226478803384    8.85258878915868
H         5.82730410668157    5.26044823976321    8.20138599759325
C         8.21050335426217    6.45752303271539    8.95137141905684
H         7.91539788136394    6.79102485852952    9.94378455993765
H         7.67605579733381    7.04261910127654    8.20736950301714
H         9.27814907329136    6.62973327199842    8.83417472584107
C         5.95568820095400    0.65988727895174   12.46733128472850
C         6.18606173148498   -0.85377214609554   12.44905555918178
H         6.74105434695226   -1.13994118156459   11.55847937930906
H         5.23145966156566   -1.37366177989903   12.45358488199870
H         6.75786217562283   -1.16020764828925   13.32209403485731
C         5.17515591644939    1.10785402265565   11.22738119952805
H         5.04341564068703    2.18776354976317   11.23564209087022
H         4.19710376610849    0.63383804760362   11.21374648102743
H         5.71408827369061    0.82975696672830   10.32414931297845
C         5.23876819445182    1.09326708992201   13.74920868698408
H         5.13755597568630    2.17587631911028   13.77701051943879
H         5.80465065552218    0.78044046365658   14.62378673165171
H         4.24989419933643    0.64402640300170   13.79064131631278
C        11.63511515764734    1.49451541870278   16.05840852758227
C        12.14636161280787    0.05157365186193   16.06058550223439
H        12.89254058228819   -0.08687181927516   15.28143995224248
H        11.32766650686288   -0.64062592018828   15.87730995896033
H        12.59426932383504   -0.18066952795791   17.02327731090399
C        12.78494600682915    2.48457571991063   16.27119066136482
H        12.41201347017363    3.50546127950325   16.22330081587143
H        13.54204569980411    2.35363673496951   15.50074778768843
H        13.24123538333151    2.32020036984740   17.24387095770059
C        10.54303297578259    1.69542403077047   17.11297597377843
H        10.14065526139082    2.70384149722855   17.04754567177934
H        10.95445542754612    1.54104048245299   18.10708737097968
H         9.72984084966778    0.99051222615789   16.95504426540020
C        13.49529660631663    5.44605647500633   11.94951948794419
C        14.74021519925210    4.65733445416386   11.53448721025334
H        14.93019773107404    3.85108235828319   12.23940591306866
H        15.60483688391543    5.31566832113547   11.51155152677211
H        14.60083918759647    4.22230642285679   10.54748811476733
C        13.65065300244953    6.01757010257218   13.36220126554911
H        12.73066519687025    6.50893338147179   13.67116383596418
H        14.46278075041165    6.73979284503627   13.38302929591097
H        13.86931967508911    5.22132983019472   14.07045749164287
C        13.19113930503971    6.55929706146336   10.94252284499959
H        12.28421544894890    7.08686172288508   11.22971584719569
H        13.04914705462297    6.14009146450202    9.94873677704063
H        14.01595761007747    7.26651633695993   10.91109966618527

