86
CSD_code = ZAGTEG | q = 0 | S = 0 | Stoichiometry = C25H53ClSi6Zr | MND = 12
Zr        5.59367024130924    9.06202481817865    4.85742803390877
Cl        5.24532725011833   11.35617921068527    4.57174458601483
Si        2.71809250121029    8.94622202728665    2.16861805569125
Si        2.62897086941199   10.59539605524691    6.96410977202842
Si        8.17307511578163    9.67776807727791    5.33958341817997
Si        9.03272141398792   11.36677680947213    3.83197512839785
Si        9.65548601385734    7.76798410533299    5.23952711238708
Si        8.61176081898426   10.71531284952387    7.48838070945593
C         4.77655871763436    7.18179288646101    3.36822515392534
C         6.17298518982295    7.07148235300017    3.38389341280260
C         6.70993901927357    8.23352793061317    2.77069649609252
C         5.63193158204627    9.05259886375535    2.39135512120441
C         4.41657809174958    8.42857985320124    2.78400573347481
C         2.74177073382983   10.81453704433502    1.76522634603782
C         2.34419681325255    7.98198351068915    0.55740411994393
C         1.34820872309094    8.48509004887121    3.42554009838992
C         3.73951792266321    7.95575620447471    6.14400157860367
C         4.88395096583012    7.18284246201953    6.41438943765961
C         5.81137663192728    7.99610878309882    7.09923366220748
C         5.21895914419309    9.26923546629196    7.26873982656005
C         3.92919266385976    9.26017646265173    6.67886999675430
C         3.39253137035103   11.93719797966152    8.08629021433843
C         1.17799657215903    9.75298069201589    7.88697832966501
C         1.91819525842478   11.43824648348500    5.39878321139807
C         8.32552709862216   11.33627546436682    2.04909672920843
C        10.94119595656765   11.28897734873569    3.63724107943943
C         8.60129525997580   13.12691336178312    4.44973986841473
C        10.12104740406132    7.16135268249032    3.47592329401774
C        11.33061547702490    8.00019452136440    6.13830020939409
C         8.83619001560386    6.25072028891069    6.09330901517563
C         8.49730197143308    9.54116475158018    9.00975310444730
C        10.35944119581170   11.49199648354384    7.65794574154670
C         7.35882553224061   12.14681134017292    7.77192641058829
H         4.07859854877797    6.40103258697998    3.64346314373632
H         6.74038319480264    6.19636705381120    3.67260463696501
H         7.74519688727587    8.37653191819714    2.49656545200523
H         5.69779024910558    9.95636636457606    1.80074357478731
H         1.75303618529394   11.25292762340558    1.85414398276070
H         3.41025348230685   11.36915021146396    2.41874014041464
H         3.07718489931033   10.97874354101456    0.74557664192635
H         2.30896796304439    6.91111807855772    0.73212651205025
H         1.38619630880791    8.27855189516508    0.14227806459147
H         3.10161567838844    8.16312938733149   -0.19902283718381
H         1.28854059602896    7.40800276460163    3.55756591676531
H         1.49904640890382    8.94007195421237    4.39946792923426
H         0.38087117255836    8.81345231927599    3.05781620859102
H         2.80804142336099    7.57361305978693    5.74625306917360
H         4.99252393579523    6.12058056071088    6.23305137376467
H         6.73117546892179    7.65860605202206    7.55621106338341
H         5.62327277085667   10.07812649356562    7.85865149493646
H         2.64694354411388   12.68030521425771    8.35092207850779
H         3.78248363348973   11.52306215667630    9.01080041706921
H         4.20255409814924   12.45254034816464    7.57967235361293
H         0.69960741393917    8.98948470408001    7.28151340036475
H         1.51343100385181    9.27930001177953    8.80360914721054
H         0.41952835566277   10.48210438225363    8.15122461718036
H         0.88956189917388   11.14575562446953    5.21124098103035
H         1.92941815028962   12.51660713817616    5.52350030217573
H         2.50069717898108   11.21388648651611    4.51130125025960
H         8.78311738630243   12.10602966627585    1.43262241693613
H         8.48132902065270   10.38812766882159    1.54430515994614
H         7.25846190633646   11.53629539444490    2.07372437447645
H        11.32057247812594   12.10602327271510    3.03047366986472
H        11.43212250825874   11.34366483472436    4.60271007177840
H        11.25396395445571   10.36200593299060    3.16789777871941
H         8.90034762864354   13.89070377762914    3.73644492882329
H         7.52971493824956   13.21916889776764    4.59487242991307
H         9.08038550838596   13.35706833618994    5.39497293031059
H        10.96398869548478    6.47570213801602    3.50179817497951
H         9.30017932329045    6.64198942866132    2.99133103453663
H        10.40525901072760    7.99332798864137    2.83877973628631
H        11.94720021298293    7.10623470655451    6.09539903311302
H        11.89865951247184    8.81011319158640    5.69312154740080
H        11.18160917031476    8.24315226751050    7.18533849387084
H         9.35144259384267    5.32429216199486    5.85492277150406
H         8.85437127740094    6.35568488117341    7.17383733371013
H         7.79679899784457    6.13320937651210    5.79364686220886
H         8.88320807834336   10.02298493317428    9.90420592081357
H         7.48023073295906    9.23126246254385    9.22592101141070
H         9.08707919545970    8.64322122381401    8.85111189833732
H        10.48092461971399   12.00570898491593    8.60829122820071
H        11.13342809522776   10.73448657235664    7.59620214769776
H        10.54957024897728   12.21391375335457    6.87079241516141
H         6.84999287524780   12.07536074907796    8.72941641767254
H         7.85379388606899   13.11239159352448    7.74564360335231
H         6.60059415693077   12.15705065341328    6.99156068628601

