41
CSD_code = ZAGVUY | q = 0 | S = 0 | Stoichiometry = C21H14FeO4S | MND = 7
Fe        1.18623119244292    7.51343715659283    2.04354336889642
S         3.08249006172449    8.16912151662988    0.76063739355039
O        -1.08222985154070    6.29839531368259    3.38713021207587
O         2.89014493530352    7.11475313449880    4.39163259796624
O         1.66779537036303    5.09351288619019    0.47363597002011
O         2.27311665584820    9.75804187890957   -1.17422143241098
C        -0.22372749536749    6.83158208933427    2.85135046046973
C         2.21824593757351    7.29832911056451    3.49164476599382
C         1.43324292993862    6.03267520509544    1.07481623789304
C         1.96020023995811    9.05130563955821   -0.25519319479496
C         0.94055292670354    9.78853941861290    2.42571353542934
C         0.07763369920506    9.37609838409402    1.39392572679662
C         0.52708795137287    8.80541179408469    0.18382252869206
C        -0.42229582340002    8.38739290230777   -0.81851457154010
C        -0.09098200904827    7.97443401630410   -2.05665977920036
C         0.45114978771791   10.34355558716081    3.68565228814337
C        -0.77182349012310    9.97045234733366    4.24749616322414
C        -1.19897545482767   10.52457933836665    5.43758205747115
C        -0.41387814914132   11.45789726682903    6.09640791128675
C         0.80741635738904   11.82775862930167    5.55846770240018
C         1.23814041903714   11.27294029519868    4.36886442200581
C        -1.00153545278884    7.54846615866954   -3.09609894484460
C        -0.47642061628980    7.24098112117613   -4.35651624396052
C        -1.29646042703627    6.83157029559916   -5.38851318720050
C        -2.66240460639941    6.71568855148264   -5.18591000102054
C        -3.19899053153140    7.01178703396480   -3.94240475586848
C        -2.38207281686161    7.42302708753747   -2.90864211435367
H         1.92853875759770   10.15330794470995    2.14720410256093
H        -0.99697175711853    9.41644735643635    1.55423127612581
H        -1.45876341293088    8.40464326098740   -0.50494287077940
H         0.95421163921375    7.96561509430928   -2.33763955092533
H        -1.38193474988718    9.22318101413457    3.76048294486044
H        -2.14644491235679   10.22314991275031    5.85923148349877
H        -0.74962124081965   11.88728271308607    7.02820223676319
H         1.42747623454497   12.54881407846833    6.06996645833543
H         2.19267231878313   11.56417375023133    3.95440519425426
H         0.58787784697753    7.33267250055223   -4.51870577549030
H        -0.87189685055961    6.60122600243627   -6.35448493671609
H        -3.30604030618157    6.39546082918123   -5.99149560911216
H        -4.26309757747090    6.91998268799577   -3.78017739582643
H        -2.82035773001579    7.64380869563856   -1.94752667466919

