72
CSD_code = ZAGXOX | q = 0 | S = 0 | Stoichiometry = C32H30F3N3NiO3 | MND = 4
Ni        0.67319180833798    5.76368919980630   54.70565360517163
O         1.00409628558067    7.10671920347289   55.95793194767931
O         1.50863256191329    9.25702135543290   56.16295205863860
O        -1.13663716957078    2.66215575875877   53.23893328691072
N         0.12786468816691    4.47397599728106   56.11133767190331
N         0.31574985978263    4.43890476234922   53.46129439882662
N         1.20126026217947    6.99238270395020   53.43005981218369
C        -0.69187535881856    5.04381848951398   57.19389326395516
H        -0.25354131002126    5.97493575704841   57.55279082092311
H        -0.76523683271416    4.32445058746303   58.02054520203603
C        -2.04304521826381    5.22057143482280   56.52298048904681
H        -1.97875863536713    6.03785572976484   55.80160438565306
H        -2.85033081140090    5.42214046029891   57.22263200032535
C        -2.20571781883129    3.89400495791352   55.78672291156386
H        -2.82546038208447    3.97891039852715   54.89587586292907
H        -2.65283927038100    3.14315186521121   56.43854049956357
C        -0.75718068076452    3.50188382862753   55.42867782595486
H        -0.55127701614879    2.48248850576372   55.78084121054237
C        -0.54034469475709    3.48271905068941   53.91231645060693
C         0.93189323703205    4.32213084898764   52.23904778704323
C         1.00763791591474    3.08745113781072   51.56817594668462
H         0.51874121663215    2.23169720113751   52.00050943373476
C         1.68948969121771    2.94001245634750   50.38639344839497
H         1.72978146379151    1.96913787414789   49.91542497840100
C         2.33192359048578    4.02601816115725   49.80007702546578
H         2.87058351498563    3.91125299642170   48.87221800773631
C         2.27410436208189    5.24631745698600   50.42334741182575
H         2.78273670280436    6.08929369533587   49.98056754782707
C         1.59051408818576    5.42987823654007   51.63763426337548
C         1.58955068692726    6.75146585312666   52.22088518221962
C         1.20973965322946    8.35695046520248   53.94686719564680
H         2.07441839884731    8.91681996242743   53.57313449897216
C         1.26344539618449    8.27036881571578   55.50272195596695
C        -0.06918359525507    9.11915775208085   53.56220412549325
H         0.03748572636411   10.14287136814043   53.92490892836475
H        -0.16692173257633    9.14293521549522   52.47296460666061
C        -1.29061084515460    8.48266194151281   54.18102414974257
H        -1.37861512730412    7.41368184187233   53.97487643534250
C        -2.57212481745808    9.27196227336844   54.22564146878866
H        -2.58030815429300   10.27908182022902   53.82916734045034
C        -1.81105358463405    8.98533373478596   55.49013927889273
H        -1.29164537558297    9.80573929012227   55.96026882126137
H        -2.23845751564794    8.28489106417270   56.19113652616875
C        -3.86971830617140    8.56757948598527   53.97790712071490
C         1.35575684843468    3.85054973470003   56.64239743814954
H         1.10072280497916    2.93506579094781   57.19439701260885
H         1.81169161235057    4.56730166944371   57.33138851476674
C         2.31218694842065    3.55199609424895   55.51579428775585
C         2.38593988504313    2.29430060699849   54.93417666431792
H         1.80207228323998    1.47803950724194   55.33511575258495
C         3.20200956724707    2.07648755113857   53.83643543285267
H         3.24741685289253    1.09502111918650   53.38934231248207
C         3.94826657662141    3.11397356242005   53.30694072093393
H         4.57148250108918    2.94499061149542   52.44195515670464
C         3.89870140422760    4.36842624583841   53.89246268715560
H         4.50102299454399    5.17182131061529   53.49458619805625
C         3.08660473774485    4.59241732534026   54.99346176111129
H         3.10979300047847    5.55479605463775   55.49991172203706
C         2.05968419821926    7.86246356480933   51.34693102783740
C         1.21245394612753    8.38389949631299   50.37587913027053
H         0.22415174442642    7.96568836942371   50.25006057188061
C         1.63987289315688    9.42392250073880   49.56902805572910
H         0.97598776432635    9.82558987879634   48.81845264476537
C         2.91396139652020    9.94420131089771   49.72133490890492
H         3.24531826650301   10.75569686800047   49.09145433208073
C         3.76566285270727    9.41782049796517   50.67834447425322
H         4.76284791844720    9.81491037044881   50.79407817638428
C         3.34243532916688    8.38102922654872   51.49082211263637
H         4.00746877220530    7.96359220574213   52.23325712799873
F        -4.91635234148522    9.20547878078692   54.53210320634567
F        -4.15100519237134    8.46900767114152   52.66449056030467
F        -3.89301242271861    7.31584107829639   54.46187081948131

