34
CSD_code = ZAGZUC | q = -1 | S = 0 | Stoichiometry = C15H5F10OPtS2(1-) | MND = 4
Pt        2.37253307009891    1.52494114603795    4.60957881561780
S         2.90357367344023    3.06357357697375    2.82075496201383
S         1.91636997885292    3.73432825556568    5.48601118828996
C         2.07031136195435    0.48931804680120    6.30967910404115
C         2.88304118746225    0.76810270612741    7.40881018917120
C         2.75700789913361    0.12721367667336    8.63275014126404
C         1.78563479797756   -0.85364613687321    8.79141459476072
C         0.96387746221467   -1.17679254382568    7.71930463397245
C         1.12139770967229   -0.51051843694203    6.51116039260936
F         3.83805574929255    1.71086718785853    7.28047294339769
F         3.55817540661650    0.44079701707226    9.66983407909705
F         1.64325540073729   -1.48596742901308    9.97286465744611
F         0.02560556810344   -2.13278778222947    7.86797325350992
F         0.31254571691159   -0.86004021210472    5.48787122558384
C         2.70307407277618   -0.18383818692946    3.60587151363292
C         3.69565867386264   -1.12025108314454    3.88180485348209
C         3.88139196083747   -2.27332834436767    3.13052626359386
C         3.04373543274583   -2.52878295433264    2.05268048279197
C         2.02956992309932   -1.62830872561733    1.74910755297442
C         1.87681020565752   -0.48789873191669    2.52451140772076
F         4.51938091650901   -0.90997972617465    4.93156707489332
F         4.86125055658367   -3.14854771106471    3.43164740819933
F         3.21156388111802   -3.64056181145059    1.30971900510373
F         1.21342934709072   -1.87762794129450    0.70654064845183
F         0.88200862632391    0.36543239311278    2.21532692426287
C         2.57822796666523    4.21112661314186    4.00844343386697
O         2.86579193729844    5.47681476811464    3.70602763082610
C         2.58552338258380    6.49433186613184    4.65521465697653
C         1.12802950856735    6.93336393926789    4.60189854929657
H         3.24981917903062    7.31862193060738    4.38265638717330
H         2.83740678887237    6.13491078264751    5.65974223087146
H         0.97029697539051    7.75623023504076    5.29357940482122
H         0.47937583952715    6.10770678347859    4.88311100225263
H         0.87176984299249    7.25549683262643    3.59544338803504

