37
CSD_code = ZAHBUF | q = 0 | S = 0 | Stoichiometry = C16H16N4Ni | MND = 4
Ni        7.71835039413409    0.18998750037867    1.37728159971551
N         7.20643497917136   -1.15323784645264    0.19739741346553
N         7.36502235136937    1.50406114082254    0.11114653149133
N         7.99670362503677   -1.06620836685543    2.73015252698319
N         8.35555355351723    1.47304858736457    2.57703737724040
C         8.24884745203295   -0.45011317865991    4.02280696999913
C         8.94155102448320    0.88754883751281    3.77294974481586
C         7.25127584723513   -2.47789062305986    0.31724120505364
C         6.89641272463109   -3.31865431425577   -0.77246273919124
C         6.94559301803620   -4.67945301805086   -0.67498221176965
C         7.34460267979481   -5.30151898771150    0.51701257859621
C         7.68118961432441   -4.52870658631104    1.59361276565325
C         7.64386181141035   -3.12294453196282    1.53059085676949
C         7.96762103009244   -2.36010589743289    2.67379927647911
C         7.45371909185358    2.82983187958440    0.18304670843111
C         7.05966368830128    3.64514923742767   -0.91257808195885
C         7.13984566389450    5.00685825872523   -0.85959481518827
C         7.62161207203751    5.65503824894020    0.28706148539086
C         8.01446371317286    4.90696956228757    1.36196973394306
C         7.94524980636093    3.50098664181935    1.34494720593880
C         8.38381904395252    2.76385079700938    2.46617635764372
H         6.87649654525160   -0.88990644382754   -0.73266301456983
H         7.00927886726876    1.21953126612425   -0.80302879901167
H         6.58812424169746   -2.85127248698304   -1.69874962415472
H         6.67584173460097   -5.28878419617442   -1.52597361302378
H         7.37969858413592   -6.37831907469934    0.57693849953371
H         7.98419725214669   -4.99195859168447    2.52272418514812
H         8.19423455511172   -2.92299978426379    3.58270967696409
H         6.68640271938305    3.15731334230111   -1.80367869792258
H         6.83140923940099    5.59652038660017   -1.71128070260538
H         7.67975569499272    6.73220521972854    0.31233713263456
H         8.38959060285132    5.39045954232241    2.25364463620763
H         8.79013127995584    3.34526272782786    3.29747999802372
H         7.28551704198589   -0.27332576043523    4.52007823435640
H         8.85594898370675   -1.09965955171501    4.66688699779094
H        10.01159579261220    0.71643003438684    3.59253934189601
H         8.83958368005521    1.55540602937226    4.63812325923088

