75
CSD_code = ZAHBAO | q = 0 | S = 0 | Stoichiometry = C35H32ClN3NiO3 | MND = 4
C         8.55553517993367   15.68800440223938    4.59608352128827
H         8.77161841252863   15.68224125903900    3.53740159962722
C         9.58440778174252   15.74765678688819    5.51889418962046
H        10.60782576902747   15.78545354010227    5.17724028305419
C         9.30291314784979   15.75557077587345    6.87506402843439
H        10.10760496561457   15.79730174888450    7.59339189340264
C         7.98835972069130   15.71438911298701    7.30797938285825
H         7.76472819379170   15.72613291548030    8.36416233825437
C         6.95520011699736   15.66131831448972    6.38895073670065
H         5.92826694482259   15.64283697915034    6.72453421628119
C         7.23369030439217   15.64158201391345    5.02725795127293
C         6.12268582901650   15.56443041522407    4.03867271595474
N         5.86251444408811   14.44970425707457    3.43870165393287
C         5.35968199842582   16.77239429067903    3.82197335488107
C         5.86243347513805   17.98041977924412    4.33391088386415
H         6.81776648464244   17.97347575161697    4.83721943695122
C         5.18407024851285   19.16462127348538    4.19537757736207
H         5.59654524920254   20.07969775200921    4.59139145215672
C         3.95814312387615   19.16931251114942    3.53504375242153
H         3.41216341952050   20.09352540600036    3.41694788681605
C         3.44028220663422   18.00806220533348    3.02051038728471
H         2.49377164971089   18.03159034539950    2.50678535852554
C         4.11530513614548   16.77788969112420    3.13221382668629
N         3.64031093274296   15.65671693576505    2.50995813065707
C         2.34550416362070   15.54930042065207    2.10525680832828
O         1.38227376674682   16.10309178960444    2.60199852995766
C         2.17778837241681   14.65376891936837    0.87251503150455
H         2.01365669359249   15.34998225969164    0.04014110153081
C         0.98968194865825   13.68889149087134    0.94734617804102
H         0.07546294429887   14.15517496232386    0.58656026830276
H         0.83053921539368   13.37192239271048    1.97655000069068
C         1.45696987322123   12.51661765851770    0.09429069162598
H         0.93112532275114   11.59181396637361    0.32004651452073
H         1.33296489714104   12.73668357513156   -0.96778610116720
C         2.93255469042051   12.43953214430457    0.46877001614225
H         3.54459525448582   11.90874519022263   -0.25834345368555
H         3.04071091242925   11.93769047046714    1.43307495107254
N         3.39179402880505   13.84292462931622    0.60745133477097
C         4.08029147797940   14.30961033119457   -0.62070872290858
H         3.36467596898215   14.37736812306518   -1.45042487966390
H         4.85100344711153   13.57459353577667   -0.86686392877292
C         4.73326975380503   15.64318686225135   -0.35441278263450
C         4.12273318570512   16.84480631811926   -0.68553201251336
H         3.19614663765812   16.84888606869496   -1.24288738371352
C         4.69394373361246   18.05036503481424   -0.31216051124641
H         4.20294253336778   18.97722028470469   -0.56802188173337
C         5.88343747869201   18.06821357034796    0.39290772337173
H         6.31736606075118   19.00811311180070    0.69866939352473
C         6.52393204782468   16.87698944197449    0.69232667279778
H         7.47104157196849   16.89237089601285    1.21121034869891
C         5.95654273312216   15.66786436588295    0.32241498087794
H         6.49855897441370   14.73954022212601    0.48771985875130
O         5.60829307339422   12.61149421108979    1.70586082600156
C         6.52401727931050   12.29921239396145    2.53610629272979
O         7.29811122678118   11.37064233389473    2.42690534027036
C         6.57188647432588   13.22978306659650    3.78384786305854
H         7.60748968248372   13.42287577039677    4.08478424245172
C         5.84390211371692   12.52228070465315    4.95997818536065
H         5.74615420603994   13.26066377346510    5.76704301550101
C         6.68551850281148   11.35560344995310    5.46745246696917
H         6.10894961968025   10.74671025286951    6.15984808131608
H         7.56217668237320   11.73703613600259    5.98708849474636
H         7.02801134493225   10.73893188181939    4.64090250477508
C         4.45200875686575   12.13992432431052    4.51812662114914
C         3.42758612709986   13.08763877391770    4.59551416051381
H         3.62075149400979   14.06049850161342    5.02982901444621
C         2.12976859447197   12.75834371573885    4.23313396384346
H         1.34601518066942   13.49471553976515    4.33533863467825
C         1.83534802145058   11.48962280185769    3.76387599606707
H         0.82842376179361   11.21514417546023    3.49009308857918
C         2.86188919006499   10.56450203678352    3.65175812807560
Cl        2.51094939217544    8.98370896478340    3.03963701334763
C         4.16004464134806   10.87491067959739    4.02123684222545
H         4.93545907632567   10.13407871314433    3.91565969751396
Ni        4.61321313386102   14.13778129884337    2.12140422161383

