73
CSD_code = ZAHNUR | q = 0 | S = 0 | Stoichiometry = C31H35Cl2NOP2W | MND = 6
W        -4.27739735226923  -16.49526247084784   -7.33956804005171
Cl       -2.67256573680514  -16.55086555264458   -5.56147380327454
Cl       -5.79744583277979  -15.29101208428582   -5.90251889659990
P        -5.24422717878989  -18.45001965276449   -6.21460445171381
P        -3.13317091732857  -14.34883463246469   -7.60031852795498
O        -1.98513504796409  -18.18052586037246   -8.66259803269732
N        -5.20850421185760  -16.59095602019024   -8.84895074585834
C        -5.61085902034853  -16.90688852438761  -10.15613705457599
C        -4.50359532332699  -16.45349941342910  -11.12930470536945
C        -6.93286875803158  -16.20926752690820  -10.52943508936602
C        -5.78566211341364  -18.43665620704365  -10.24645144141160
C        -5.22426722840887  -18.37743330419492   -4.38417930174167
C        -3.18329978025055  -13.21744542935301   -6.16279880864860
C        -2.82564449745940  -17.53978564145232   -8.19088885790035
C        -7.00647561925911  -18.79954830648539   -6.50286791148450
C        -7.60744113319426  -19.96006986298723   -6.02417964696726
C        -8.95840928456079  -20.17142325419170   -6.22796849480927
C        -9.71706127963647  -19.22551629778363   -6.90012997742018
C        -9.12361027020910  -18.06573271294913   -7.36999179052956
C        -7.76996394426919  -17.85229834327146   -7.17354024926786
C        -4.40719625554899  -20.02461009872928   -6.57814321963762
C        -3.14527166145314  -20.24122148790633   -6.02899844815978
C        -2.42732558459148  -21.37486343641356   -6.35930219677617
C        -2.95463358283905  -22.29569820006328   -7.25065106821783
C        -4.19654753409375  -22.07192953789623   -7.82091383982960
C        -4.91869018341887  -20.93826492427813   -7.49369041972345
C        -3.82798967418674  -13.25450696963056   -8.87903859765531
C        -5.21268615545868  -13.27801466031874   -9.01737471850204
C        -5.83144825402025  -12.44369711573446   -9.93025331753503
C        -5.06995814816522  -11.59202937256401  -10.71562901814535
C        -3.69173478090802  -11.56809275021554  -10.57967091170929
C        -3.06812266012515  -12.39202771894175   -9.65843911996637
C        -1.37309743143186  -14.45942855208622   -8.03424282523303
C        -0.33899951105195  -14.11919589583456   -7.17226077270108
C         0.97594187360691  -14.31429440599129   -7.56212915494618
C         1.26467128537765  -14.84564787223614   -8.80667204526112
C         0.23476775192283  -15.19534018270877   -9.66783785485997
C        -1.07690753869608  -15.01183761228780   -9.27963371137490
H        -4.34936114426908  -15.37987758302716  -11.03252356370616
H        -4.78052407259912  -16.68305858859877  -12.15509550101901
H        -3.57654240326344  -16.96821915455078  -10.88412524782360
H        -6.80545656761267  -15.13083486999752  -10.48565639163331
H        -7.71910892129173  -16.50008225193388   -9.83767858397160
H        -7.22907120514073  -16.49038373996405  -11.53693916582545
H        -4.86987533313564  -18.92296598571755   -9.91196117583714
H        -6.00323370472012  -18.73587148425714  -11.26856653204004
H        -6.60235429408277  -18.75120505294119   -9.59971626722895
H        -5.85303198332036  -17.53702551987579   -4.08288780797578
H        -4.20878972075695  -18.19585665106022   -4.03244468545839
H        -5.61178857535753  -19.30466286529742   -3.96110207231382
H        -2.78383256710349  -13.72832800537414   -5.28536985559610
H        -4.22894161448166  -12.96818142199656   -5.97310703254897
H        -2.61676933267882  -12.30950757408906   -6.37594413232572
H        -7.01426900746645  -20.69937562935262   -5.50279103878167
H        -9.42314888493707  -21.07455044461761   -5.85995020222665
H       -10.77273622205425  -19.39376028477586   -7.05430529755148
H        -9.71844346478287  -17.32656166335925   -7.88665011958760
H        -7.28556608896051  -16.94905645078016   -7.52859753178895
H        -2.72077030948249  -19.50932121528024   -5.35484299292460
H        -1.45121875966326  -21.53826526115202   -5.92694258596780
H        -2.39286278292837  -23.18116135492897   -7.50886321144813
H        -4.60287734893677  -22.78038997533908   -8.52813632823815
H        -5.88326743261680  -20.76041866639568   -7.94801226697980
H        -5.78959736538317  -13.96178576193430   -8.40213808111811
H        -6.90695364800180  -12.45474612074698  -10.03342821410474
H        -5.55146724284862  -10.94576010609169  -11.43464960885378
H        -3.09999744537938  -10.90274178532988  -11.19132118507996
H        -1.99254024334798  -12.37130769206777   -9.54915826517819
H        -0.55280225243713  -13.71601931099628   -6.19385481106131
H         1.77785502866701  -14.05377707818135   -6.88676537575362
H         2.29178567304400  -14.99658660938519   -9.10446456789743
H         0.45825216676936  -15.61920906398179  -10.63575964290382
H        -1.89466035418877  -15.29490288476416   -9.93176358938269

