30
CSD_code = ZAHTAD | q = 0 | S = 0 | Stoichiometry = C10H11NS7Ti | MND = 12
Ti        1.31402282062883    7.71762317472385    1.88865934161745
S         0.22907435674331    5.68511058525727    2.59949670259207
S        -1.79491114943189    5.97730703796722    2.76031303839830
S        -2.42097581434335    5.34884751733674    4.58970302645255
S        -1.92661752621586    6.85699451709662    5.94142526788959
S        -0.23604004773362    6.15481507766093    6.85225366430126
N         1.03995382383623    6.36201135547255    5.77964197731255
H         1.05455429096985    5.72153062653348    4.98666845990247
S         1.82906466541505    7.84015177086418    5.50323077407262
S         0.83122740302000    8.76212814323160    4.00875200228821
C        -0.54579253884432    7.75666156703203    0.47437053929182
H        -1.23994633404420    6.94757531113192    0.28207239504824
C        -0.69507836562612    8.76569582530249    1.44958104575009
H        -1.51254781773911    8.85748218044239    2.15415920435647
C         0.32858945681902    9.72374944141148    1.24509337000658
H         0.42178743534952   10.66600999088513    1.77192937025900
C         1.09587964473965    9.30643745841403    0.14245526742306
H         1.87370909916435    9.88215424666330   -0.33990198239788
C         0.57137989833976    8.08125139015053   -0.32051132346960
H         0.87176710977963    7.55483144256932   -1.21712766456568
C         3.46705065426251    7.92598748483948    2.74875704088876
H         3.77529863556200    8.51830978824888    3.60148273490578
C         3.10669228456116    6.55998190413792    2.77400807228770
H         3.09842617623742    5.92047119558963    3.64765958578369
C         2.95601191090727    6.12435842024667    1.43414923125837
H         2.77268281167197    5.10281293308274    1.12175460667893
C         3.23075793492474    7.21566748547310    0.59150220515250
H         3.31219239496196    7.17607461166363   -0.48615960269353
C         3.53214581543555    8.33218140167202    1.40151028823674
H         3.89504097064867    9.29228611489798    1.05847136097180

