65
CSD_code = ZAHYIT | q = 0 | S = 0 | Stoichiometry = C28H20CdN6O4S6 | MND = 4
C         2.68752674182830   13.81122173610799    7.10103384315020
C         1.65895540329488   12.87713273134784    7.12438798561228
C         0.35955493259605   13.25534614081686    6.82607239481141
H        -0.43858401603533   12.52904236443682    6.86203578281526
C         0.12545175883883   14.58025789623446    6.49163894997110
H        -0.87889660448590   14.89952192819193    6.25596434697337
C         1.16015540370776   15.50388443984478    6.46623044778513
H         0.95222898666631   16.53274255845422    6.21265752537451
C         2.46397089652000   15.12401920127131    6.77185519332708
H         3.27546382242006   15.83466468677516    6.76149523693342
C         2.13854917960329   11.57487063148831    7.57710954456990
C         1.86895809918203    4.87205556508015    9.09627768256732
C         1.79346556006162    3.52134384228994    8.80892503890180
H         2.10728488101174    2.77812279147374    9.52410650833289
C         1.29564018883016    3.16970811328518    7.56424768895763
H         1.22026108612075    2.12553831059790    7.30349601679255
C         0.88869341114731    4.13050593604907    6.64279278057866
H         0.50652112093957    3.81075167948322    5.68607748719658
C         0.96160037258493    5.48490296540533    6.92386495078492
H         0.65026077960978    6.23283432883915    6.21397320073301
C         1.45866565986171    5.84427952434219    8.16398141111551
C         2.22351489370290    6.90092583958826    9.97127428758508
N         3.43978715099878   11.45753446628554    7.70049277492164
N         2.32339954308133    5.56274254716429   10.19873132643982
H         2.68219805719088    5.17391894321555   11.05489679894453
N         1.67834958227708    7.07094499953965    8.74557953414429
H         1.48118223647717    7.98367637150965    8.33504680705710
O         4.85260071345545   13.28423669275990    8.70978606372861
O         5.02767400874295   12.88176206158746    6.31920560838789
S         4.19194613467616   12.92039534691958    7.48438291700792
S         1.13884588731012   10.31187026309467    8.01091733732793
S         2.73950719801139    8.07814545394327   11.03123636321661
Cd        3.61336262135465   10.00730661636606    9.22887441374430
C         4.55320230986216   13.80815748922066   11.35536629676183
C         5.57977359504999   12.87187570023720   11.33187916688066
C         6.88002878981849   13.24722390535862   11.63005299978126
H         7.67652325346973   12.51911952100905   11.59391540116326
C         7.11705811072527   14.57156858270778   11.96462530783461
H         8.12212042262914   14.88861471907780   12.20024050415284
C         6.08432423769971   15.49738339082055   11.99031978089500
H         6.29447635780958   16.52574824984641   12.24405560607043
C         4.77965625235497   15.12040603192653   11.68473413019467
H         3.96974453837302   15.83284824466047   11.69530352591939
C         5.09749618846886   11.57043773951679   10.87964713158139
C         5.37491239055140    4.87004792868601    9.35918844453230
C         5.46109074693241    3.51913217029650    9.64259009563177
H         5.15662414676906    2.77544680625363    8.92386089972709
C         5.95734751934828    3.16783861904144   10.88799543137593
H         6.04099491877584    2.12352004542999   11.14562358718419
C         6.35246079539130    4.12915459529832   11.81405741858019
H         6.73370828710694    3.80964705409402   12.77122698028772
C         6.26906827853420    5.48375910333581   11.53690429225332
H         6.57135857177378    6.23214722670751   12.25022483917840
C         5.77372685386507    5.84276475800776   10.29596786092158
C         5.00728725263515    6.89866206666791    8.48901141494960
N         3.79587313964284   11.45596582700292   10.75649990131184
N         4.91877690344934    5.56040313818275    8.25723828623088
H         4.56657309989283    5.17157144149404    7.39835248676231
N         5.54588022448871    7.06937451900230    9.71745089610380
H         5.73734263441609    7.98256308895399   10.13005702120120
O         2.38634629437613   13.28510793598307    9.74709695106827
O         2.21123107740983   12.88378909583819   12.13776111942964
S         3.04681172518737   12.92047180336433   10.97240702544109
S         6.09450853568838   10.30524455515616   10.44677776602573
S         4.48587685604966    8.07459767315592    7.43021918058726

