70
CSD_code = ZAHYUC | q = 0 | S = 0 | Stoichiometry = C33H33NOPRe | MND = 8
Re       -2.25422987523371    4.82274830227645   10.54969218957319
P        -0.04400470984408    5.65541314020527   10.79120946474747
N        -1.85879596774227    3.45819340663838    9.54103728492729
O        -1.63855058367348    2.56655690621120    8.78746677575428
C        -2.09974175601392    3.71156937474765   12.45132926504831
C        -2.98823436287436    2.47500550335228   12.58819226986272
C        -3.34271832457337    2.22777933037303   14.05688078817419
C        -2.29558568490586    1.23177999140294   12.00150980057144
C        -3.27174481403591    0.11284006938851   11.79776672972369
C        -3.36433727968562   -0.94616727992299   12.69081435650009
C        -4.30561878145858   -1.94513882488634   12.50907961217300
C        -5.16891978070071   -1.89726368121614   11.42886735133133
C        -5.08074071170386   -0.84870682354871   10.52767910448052
C        -4.13960637941520    0.14676898746447   10.71191664648758
C        -4.47352210826993    5.36714823170565    9.95029549930011
C        -3.69670771503068    6.25190875696795    9.15443562084922
C        -2.99313619246142    7.10497201416384   10.01729438796065
C        -3.33261345600090    6.77048628997329   11.35644175022909
C        -4.27603301080148    5.72244580970325   11.31195573118851
C        -0.01713437231580    7.10322147959986   11.88510443129872
C         0.03976984316436    8.40503704341130   11.40142226173352
C        -0.04877879152798    9.47195330473570   12.27915300023980
C        -0.20218061308480    9.24679078761149   13.63696774632701
C        -0.26860151243414    7.94912270378169   14.12233898913057
C        -0.18232682519886    6.88038145219057   13.25108975192520
C         1.26500136868295    4.58231566755799   11.47153170551288
C         2.31590661785045    5.05827508707168   12.24702519228339
C         3.29831676002429    4.18671292444174   12.68431988292068
C         3.23954173338590    2.84431648950519   12.34919256759166
C         2.19282277962039    2.36743473296214   11.57536328896576
C         1.20793482459554    3.23247908041152   11.13690737820705
C         0.76396756096194    6.22565567383178    9.25758135017668
C         0.16186896773387    5.96234621068701    8.03372063528764
C         0.76384732476292    6.37900489947275    6.85939589556332
C         1.97015296789046    7.05753510082143    6.90335926959561
C         2.58109434701849    7.31043242713267    8.12220720471044
C         1.98503593961306    6.89327943387095    9.29736124741579
H        -2.45640940593546    4.46303879640479   13.16736595276404
H        -1.08571660972656    3.43657841031569   12.76785053429777
H        -3.92313557160165    2.63468577230795   12.03944810046095
H        -3.95160757229898    1.33146723552249   14.15286725906152
H        -3.90187843688013    3.06649688651758   14.46690648525698
H        -2.43699369145754    2.09895004843898   14.64657769047543
H        -1.85463020652963    1.50501220741514   11.04337035477991
H        -1.49308812244271    0.92313674151491   12.67325949955611
H        -2.69063453384934   -0.99175698965832   13.53539888368523
H        -4.36584524610525   -2.76315099423869   13.21326806117457
H        -5.90472404495414   -2.67573906664108   11.28683668457369
H        -5.74778536968925   -0.81112075979702    9.67807526668969
H        -4.06223383901424    0.96092586172664   10.00562096383017
H        -5.21957586124953    4.67901361068871    9.58095513716846
H        -3.69986396031057    6.29706857447585    8.07670888867520
H        -2.36671600683975    7.93233192757873    9.71644990410061
H        -3.08222792708918    7.36170448733549   12.22834724098404
H        -4.83740913907807    5.33354354173761   12.14932784775518
H         0.15306443007091    8.58297194456593   10.34068702735477
H        -0.00455667126687   10.48279674819028   11.90039293746977
H        -0.27653543022771   10.08233716530005   14.31717367361103
H        -0.39587233627555    7.77359723210423   15.18058748646446
H        -0.24661169351344    5.86286170584148   13.61204144296420
H         2.36271546978869    6.10244372218099   12.52413827429604
H         4.11162075965991    4.55780230395744   13.29091640253150
H         4.00819862911400    2.16950405528113   12.69559593444436
H         2.14259508210034    1.32058992287114   11.31730230406559
H         0.37265510590041    2.88023342139987   10.54649032735763
H        -0.77774327401121    5.42473267018814    8.01436457403654
H         0.29279259206838    6.17340264858342    5.90976487605264
H         2.43917098064654    7.38699229965202    5.98807038609677
H         3.52562373486687    7.83363216641998    8.15481143634452
H         2.46336073980412    7.08548169769700   10.24752173382791

