41
CSD_code = ZAJDOD | q = 0 | S = 0 | Stoichiometry = C16H18FeO6 | MND = 7
Fe        2.79705739157066    0.53626206452574   -1.00891591457783
O         3.54584971980480   -2.07190308678316   -2.04160702153628
O         0.02833787199061   -0.25247192998363   -1.43615285848106
O         3.00223466162696   -0.05434171500328    1.85458553366916
O         0.09442985992389    2.95738721426278   -1.42434850887548
O         0.72424590564061    3.63505287535116    0.62543602735710
O         7.11900805631992    1.56977346217920   -1.47810139869365
C         3.26385188129986   -1.02924721440294   -1.66064518005571
C         1.10810738558504    0.09130419409963   -1.30839412582872
C         2.93789083069250    0.19060117858146    0.74221540790504
C        -0.60903463668411    4.05421706622246    0.87248331690187
C         0.95065630194711    3.07664041103006   -0.57817937917645
C         2.35059795455518    2.63141812170295   -0.71577772523415
C         2.81424666630653    2.42050642895533   -2.05970288669641
C         4.06046058545964    1.81291174745099   -2.24755024300851
C         4.78619397598262    1.39999145038610   -1.08936282457244
C         6.07507189217923    0.61841483378459   -1.28311402966029
C         6.35175980163832   -0.27101865529455   -0.06191786911437
C         7.74837447167944   -0.90568294108901   -0.10514277118388
C         7.98452391012833   -1.60583961950702   -1.40555885695075
C         8.52939462201082   -1.03450388295102   -2.47031607372396
C         9.03156675376884    0.37845456690934   -2.51961482000372
C         7.90075217886886    1.42011463615630   -2.63587636169019
H        -0.63249591366626    4.40585635930172    1.90063133326012
H        -0.88875901139560    4.85659902039272    0.18642636837225
H        -1.29932970247967    3.21941252941701    0.73439179313928
H         3.00486504277640    3.09092687025992    0.01961084984778
H         2.17798323997254    2.69446669313477   -2.89431915050396
H         4.41595273973174    1.58506205625741   -3.24697833813226
H         4.91366399603051    2.13307802550390   -0.29504661728708
H         5.99077297859229   -0.01899990186238   -2.17385321278623
H         6.26578916959201    0.33115840728035    0.84358543826031
H         5.58233992627843   -1.04584319985731   -0.03413030950271
H         7.83683974475963   -1.61150450748162    0.72270410511394
H         8.48504732874902   -0.11372259248630    0.03461530041322
H         7.63132357451268   -2.62631539472901   -1.46667998855115
H         8.62051726222338   -1.59872083113315   -3.38884317505968
H         9.68442181048487    0.50621875337907   -3.38434317543813
H         9.60704798999564    0.60930915342088   -1.62094690583538
H         7.26799680839775    1.17545293905315   -3.50147861287936
H         8.34694497314802    2.40602441356393   -2.80108713920048

