86
CSD_code = ZAJJOJ | q = 0 | S = 0 | Stoichiometry = C26H55ClIrP3 | MND = 6
Ir        3.38388175338527    0.88677445095454    5.96214055908103
P         3.08840902255772   -0.72104426725691    4.21566396023774
P         1.14450137680761    0.97935654292216    6.79920353138056
P         5.74828212547424    1.33645997109049    5.79890304520422
Cl        2.92813672906337    2.38462716449507    4.06714406376715
C         1.72619159024048   -0.55516890185949    2.98249939008914
C         2.77172313546639   -2.47321379189404    4.70119758165721
C         4.41904118671324   -0.97023452613511    2.98671464070376
C         5.32310574016364   -2.02429463523561    3.06198591356977
C         6.30968504427289   -2.16890057730593    2.10161778014328
C         6.40561042014694   -1.26613948234059    1.05648175354905
C         5.51432030282119   -0.20807547843072    0.97943169847200
C         4.53121630384437   -0.05758505224137    1.93925416923628
C        -0.30442965357522    0.45136594332220    5.72558499419340
C        -0.53445168375507    1.49205581198215    4.63201062180154
C        -1.62746539098544    0.08435510375138    6.39600576411610
C         0.86592007968819   -0.09144090317217    8.31481518722053
C         1.11194332125874   -1.55824627798008    7.97766173748141
C         1.75785713189574    0.32948068982595    9.47789470126369
C         0.75328625864930    2.67245251088003    7.51658852823453
C         0.95044993791204    3.81246999188217    6.52015526108906
C        -0.59127968240108    2.83901587253441    8.22068994620578
C         6.14589279508076    2.97813683803787    6.62360263761083
C         7.62152223711562    3.35025116649691    6.74079007502614
C         5.36254865121967    4.14906334722552    6.03278898515412
C         6.67482468151555    1.28411677673553    4.16402650315039
C         8.18857082949764    1.07159493978815    4.18861382461318
C         6.32920543947882    2.50001446355403    3.30812799852015
C         6.79206492407654    0.16954560115618    6.83039008877010
C         6.46714629494503    0.26086797260852    8.31730595189340
C         6.58086822410152   -1.25667024083964    6.33369372191586
H         3.68677614633276   -0.18962504879533    7.00056088121246
H         3.53513339886847    1.95266839176694    7.05151053168416
H         0.08354480999219   -0.46231540798117    5.25621523417617
H        -0.18105489475117    0.02889302729998    8.60990930643982
H         1.55272864838970    2.76016161738586    8.26427207849110
H         5.74854167346435    2.80314713701396    7.63216616384624
H         6.23892927091934    0.40699549422747    3.67600553819681
H         7.84043589945240    0.44440316160057    6.68236354865479
H         1.95064678124741   -1.16572779860361    2.10740024328322
H         0.78508377224709   -0.88627673888895    3.41420344977003
H         1.62930349768687    0.48577130783710    2.68503848844410
H         2.75914843771084   -3.12646967232474    3.82953816253236
H         3.52560336196819   -2.81406004069334    5.40696013758109
H         1.80491034532812   -2.51774910181524    5.19954844526543
H        -1.05882101921478    1.05063472632543    3.78445405985622
H        -1.14248573807217    2.31068996222310    5.00891180478472
H         0.41130584056009    1.90015465012100    4.28087076692779
H        -2.34613832475229   -0.17286989956524    5.61704707267807
H        -1.53171916612010   -0.77677001982271    7.05201817728283
H        -2.03872722143771    0.91115421850738    6.96523332324215
H         0.91654083702236   -2.18292186176793    8.84859239273761
H         0.46911304129999   -1.89675905118390    7.16799118240162
H         2.14838001223875   -1.69534004703258    7.67952969166441
H         1.71844149421645   -0.42295167519168   10.26438851565944
H         2.78701601644197    0.42450736756771    9.13993654530173
H         1.44120821146125    1.27709940272478    9.90480241728200
H         1.12000162654255    4.74510251236516    7.05688288678946
H         1.80681632599873    3.62822067823984    5.88018473745700
H         0.07762787430786    3.94516612807014    5.88700365831812
H        -0.58527788993570    3.78337197262105    8.76491772928124
H        -1.40551485677752    2.88485015919044    7.50185061591688
H        -0.79216815792787    2.04559421868541    8.93556331033061
H         7.71520335132776    4.21110100090188    7.40294556136600
H         8.22089745627318    2.54426319655913    7.15607741028773
H         8.03104122725963    3.63595494015156    5.77534151506224
H         5.28598064524327    4.95007667064109    6.76697821469731
H         5.84838817118676    4.54964642623338    5.14822811015340
H         4.35742552295441    3.84357960918692    5.75907775887260
H         8.54745574136857    1.09784748926480    3.15942207889889
H         8.70677959898818    1.84852480161719    4.74145285772192
H         8.46057546824295    0.10441202872288    4.60257657246533
H         6.55964517796468    2.29443242692601    2.26304852035009
H         5.27060247416678    2.73676670822234    3.38229460693228
H         6.90592550489772    3.36925681865270    3.61432436020291
H         6.94999862312863   -0.55710269112966    8.85045800438316
H         6.81671865826164    1.19500996028438    8.74831749076729
H         5.39299700330622    0.18658167377370    8.46928811230736
H         7.20691197226085   -1.95229635477946    6.89188043798776
H         5.53910309752386   -1.53750323940524    6.47496288123764
H         6.82104847078082   -1.34813734884510    5.27674017045460
H         5.26360759781490   -2.73614698433255    3.87165344990040
H         7.00528366377681   -2.99358569534400    2.16975554797810
H         7.17392422480986   -1.38552718754093    0.30641909028467
H         5.58690238888917    0.50300979922040    0.16896569488059
H         3.86017477852432    0.78719515612017    1.89533583994172

