66
CSD_code = ZAJLUU | q = 0 | S = 0 | Stoichiometry = C30H27ClCuN4O2P | MND = 4
H        -0.68838653820844    4.25255548302530    8.69634989980594
H         2.39631715612931    4.67051679378422    4.97473366801695
H         5.22889272175659    1.72484236726901    6.81256877427163
H         3.65231471555885    3.00124814976606    5.39038633748698
H         0.74293029656156    5.03563026673334    4.66422848968342
Cu        2.55929049933714    2.73830979776984   10.85057440449721
Cl        4.72168906913929    3.13061490523615   10.92045598387112
P         1.55022584630986    4.83187518197987   10.45932916617288
N         2.61177101715847    1.77248107634014    8.89856349898021
O        -0.15709361150381    3.62447126099809    6.47437429200582
C        -1.09229473767143    2.29629280679719   12.66880416770653
N         1.03871339235439    1.80438785023549   11.68972874900569
C         0.46279390898647    0.82359719324502   10.98716631263135
C         2.07178619528601    2.92261138695529    6.86440833265435
C        -0.88706030705615    0.53737281577473   11.06804360430942
C         1.01242481418824    3.68715883107165    6.14862816492619
C        -1.68866092264824    1.28228423546320   11.91868134021908
O        -1.27556158161713    3.67395199803657   14.59265782194204
C         0.27190660260066    2.50585009548987   12.52225976921218
C         3.35150623241452    2.67127519503978    6.37422741001357
N         1.42717937983818    4.44041762412676    5.10250648461198
C         3.83014009916445    1.53417066131273    8.42009121984849
C         1.75627554633688    2.42368974680713    8.12415521101493
N        -3.16246243825274    3.25700809039814   13.43626045951506
C         4.23463713251083    1.95170597885365    7.16271630684827
C        -1.82726287931252    3.14616787075848   13.65200250806937
C         2.93570776619217    5.51916530615127   12.76117332528764
C         2.03692888782799    5.66265299697894    8.91158784778500
C        -0.23740758912075    5.15093317044837   10.60240256108562
C        -0.78253960564575    5.70302674725804   11.75905060119201
C         2.24379281811087    6.01422287882669   11.66276156366554
C         1.20588694963443    6.45861167853815    8.13200436916492
C         2.09342521461690    7.38854189311183   11.49706745573403
C         3.31508491586899    7.75772695931493   13.52891044960270
C         3.85159671372837    6.05664709190675    7.38330562618248
C         1.70343968479930    7.05198425463651    6.98519583470881
C        -2.99485115100509    5.39904812034349   10.87875128583873
C        -2.46018616537323    4.82135575770853    9.73763844239637
C         3.02164163744745    6.85228803494636    6.60786365728900
C        -1.09118394016579    4.69108194442464    9.59929775910479
C        -2.15238831252881    5.83889679852984   11.88695152989851
C         3.36335183115103    5.46338112272271    8.53157185701576
C         3.47005983189322    6.39180502304182   13.69265973666524
C         2.62836238876071    8.25451731887551   12.43129511885282
H        -2.73791128510599    1.05046264448755   12.02245245357569
H         0.75361951142275    3.27412438378358   13.11395184730237
H         1.12226232160217    0.25835123104626   10.34542951035716
H         0.75722757529845    2.56253309125833    8.51910439641900
H         4.49948486204893    0.99995335757378    9.07785839996819
H        -1.30312164312641   -0.26681040091742   10.48179729107505
H         3.07403997937206    4.45038969603419   12.86575790743386
H        -0.13438646475332    6.03666210374019   12.55659434889646
H         0.17677302618921    6.62036883620168    8.41889874431904
H         4.00403901747212    4.84334986044806    9.14738767239656
H        -3.10965746553509    4.47375038097353    8.94753955727838
H        -2.56023619318970    6.29001359253896   12.77975722843917
H        -3.67517407486824    3.88176847471799   14.03729168092950
H        -3.57408481449134    3.01367406656693   12.55328470753240
H         4.88137614850657    5.90234226878434    7.09563159353995
H         2.51285828386376    9.32122109970895   12.30290143950411
H         3.73433145521337    8.43984933760155   14.25398463034961
H        -4.06545564002206    5.50964799528663   10.97888737981668
H         1.05847004158304    7.67909674510159    6.38589909098952
H         3.40361368581240    7.32451959868627    5.71336633474556
H         1.55880548964385    7.77219429099484   10.63822053607301
H         4.01209269751465    6.00476258443128   14.54231185023174

