86
CSD_code = ZAJMEF | q = 0 | S = 0 | Stoichiometry = C39H39ClCuO3P3 | MND = 4
Cu        8.65076444245324    8.64001934809023    4.62968890589763
P         9.05373452100819    9.89706644903189    6.50474402747689
P         9.91362486429213    9.01158031357300    2.80786556411168
P         8.13131551257179    6.51952736947717    5.23978704101149
Cl        6.43602873423399    9.50944760078457    4.19362764112305
C        10.69465208393334   10.38629451828412    7.12575897906822
C         8.86016381112846    6.05372512746465    6.83657460638916
O         5.65235766792021    6.50271396309659    4.22695263178511
C         9.34357373121435    8.29229849348501    1.23820357441485
C         8.72509005377167    5.24268337206976    4.09135772982091
C        11.80453842933398    9.89582717238036    6.44962922088971
C        10.17367923485373    6.47641155266309    7.03690869148004
C        13.08022272913699   10.24579135181166    6.85301886475579
C         7.96744712451491    8.30349301990783    1.02334329146675
C         8.24553674284816    5.32364043759093    2.78458582250229
C         9.68354318924082    3.51823590574793    2.14219862204818
C         6.31788757068976    6.09477807568055    5.37844022845327
C         9.69154908444604    4.29689149558158    4.41584626573963
C        10.87047710431582   11.23603673145121    8.21431494457243
C        10.18812577475912    7.73951251780581    0.28282869947455
C        13.25116366808071   11.08792443775627    7.93841115388344
C         8.18849077230922    5.39931557542923    7.86154397063673
C        12.70866602648418    9.30263445566853    3.12426010696189
C        10.81561711730650    6.23025471463868    8.23385858727235
C         8.28500579085058    7.21306039081648   -1.08514353265109
C        12.14669211100716   11.58120954212652    8.61702580511542
C        10.16271805979633    3.43658619018362    3.43969761390865
C         8.71935152948650    4.45957859149866    1.81669168382915
C         7.44083484764831    7.76834203160940   -0.13676856345843
C         9.65423151564097    7.20092752454722   -0.87402279907429
C         8.83355793956077    5.16086911435756    9.06284139673637
C        10.14266341960496    5.57083871645686    9.25057419695332
C        13.97537135419137    8.78393607541491    3.33217370419069
O         8.13695576376962   11.87996012243311    4.91748495521570
O        10.48781402488588   11.58043866680264    3.40358252696858
C        11.63019228238563    8.44061257767948    2.95401429088199
C         8.20056254882164    9.24517563777108    7.97020641875084
C         8.84624489180029    8.85954017458547    9.13909296613447
C        11.82883234363719    7.06222047722801    3.03537428053310
C         6.83953310612715    8.98143235217087    7.81690748574666
C         8.21552507946069   11.56435316026220    6.27791159153334
C        10.07335438698372   10.80782722490483    2.31659583643452
C         8.12727214701389    8.25824914198043   10.15625889349997
C        13.09536272144742    6.55266556248073    3.24360999453602
C        14.17263375674244    7.41409986117168    3.38797913919403
C         6.77089718403220    8.02149834942148   10.01082112831392
C         6.12805934860954    8.37966776479142    8.83634416339756
H         6.18310728641632    5.00976614257804    5.46379374499482
H         7.49715307173764    6.06417241272249    2.53969698356165
H        10.98080100756254    6.39810932871630    2.92772047206201
H         7.31708175653089    8.72509799061188    1.77836683321646
H        10.68310565888203    6.99894484324855    6.23509217401230
H        14.24509464645440   11.36546658180733    8.25733090590865
H         7.21870844717321   11.52569368002258    6.73799979718565
H         7.49602679113548   11.24753043332723    4.51337221617034
H        11.65719298395908    9.24717175370525    5.59574593581334
H         9.90809559253057    9.02478945547109    9.25171573632070
H        10.00865744062669   11.61897051488166    8.74462068995960
H         5.73709861950606    7.47672785617070    4.14666718412520
H        12.28335275617122   12.23973857628137    9.46266603430935
H         9.09789197577354   11.12600692150407    1.92125104214423
H        11.25669767836259    7.72606439742179    0.44520325380111
H         5.92812642945351    6.59104812233936    6.28275936369384
H        12.55570668138306   10.37111616434882    3.11358673823262
H        10.91170397617581    2.70000678323596    3.69335149912325
H        10.06332809472610    2.84903422132254    1.38424212964210
H         6.37296419038245    7.77580170549476   -0.29759270192474
H        10.07346627125156    4.23647412612712    5.42538443848943
H        14.81343810502654    9.45519121896081    3.45384578072691
H         8.34597031734120    4.52969486474257    0.80568210310219
H        13.93693472160777    9.86270856731925    6.31819802320200
H        10.31120442563582    6.76911370648430   -1.61535356359974
H         6.35006766878783    9.24306013739683    6.88735400136983
H         8.81374324726051   12.34666638823168    6.75682300523223
H         7.16764398546993    5.07520185974358    7.72563753285273
H        13.24160220655600    5.48364441124274    3.29797856224175
H         7.87570189621697    6.78749421277514   -1.98980008075304
H        15.16353321546553    7.01626388684888    3.55156267775855
H        10.63776847072845    5.38109825653716   10.19143225050970
H        10.82440950785323   10.90281621578356    1.52225276388896
H        11.83466021094992    6.55905740264440    8.37806702991639
H         9.72052352344186   11.73918391218938    3.99116851221575
H         8.30931104273152    4.65141417665919    9.85811082214511
H         8.63157196683557    7.96805454648903   11.06653918903833
H         6.21596215396402    7.55048645536655   10.80874794292819
H         5.07207583377143    8.18452451854990    8.71577662863496

