51
CSD_code = ZAJVUE | q = 0 | S = 0 | Stoichiometry = C16H22N4O6S2Zn | MND = 4
Zn       10.74973374561073    0.16903337268358    5.55587630048127
S        10.23305416926865   -1.82044436427601    6.93219380657553
S         8.58803153728352    1.42197676418394    5.57444054687420
O        10.87955203047792   -1.80358122183041    5.58915824915086
O        10.15939203265236   -0.41012322160084    7.36009261450749
O        10.88084509431122   -2.69528760242527    7.86945038518167
O         9.91408348017160    2.06264964147330    5.67410514207057
O         7.78276166328963    1.36373981246620    6.75177362632327
O         8.79039986696324    0.13882450807050    4.86512400195504
N        11.60288381116838    0.61332904486139    3.72223562878349
N        10.60062520442076    2.07255780034855    2.12624843036776
N        10.07461851184149   -0.07641820730410    2.09469356878437
N        12.54157469163270    0.80167235000587    6.22280043491773
C        10.80037496135400    0.86223715589781    2.71624813813679
C        10.89383790246109    3.33025178050539    2.76733683164066
H        10.86947247524576    3.20255558905377    3.85223784135942
H        10.14066067536921    4.06311095773966    2.47951698635299
H        11.87933748749718    3.70227236548033    2.47321994246639
C         9.62335222213350    1.96245258288700    1.05799187355959
H        10.11111822214207    2.13962125786832    0.09132178665127
H         8.82293034070442    2.69863122810544    1.17421965883721
C         9.11953553649853    0.51789830038574    1.18419365752931
H         8.10755995166572    0.46202929490401    1.60569045574631
H         9.12848601720724   -0.01253566770296    0.22829793145589
C         9.93506130579149   -1.44697112231950    2.49792201805746
H        10.08428983278050   -2.09512674912443    1.63125226953503
H         8.94199350629523   -1.61370562062909    2.91881640641372
H        10.66608875897748   -1.67132368958127    3.26994211887140
C        12.78951264235263    1.27178816695535    3.91251769678587
C        13.58120693058020    1.76971005807669    2.88872841560349
H        13.23945147475530    1.69354327473914    1.86704932224825
C        14.83178326810723    2.33513991221963    3.15303389021869
H        15.41487963877147    2.71407239508676    2.32619276209720
C        15.32633857130332    2.41207796767438    4.42818498396547
H        16.29065800483830    2.85410516203467    4.62639288654745
C        14.57280142896130    1.89524989939260    5.50031375137527
C        13.30210226984652    1.32045411318150    5.24156031458419
C        15.00841167082685    1.90974095471843    6.84201166908638
H        15.97206736041318    2.33875538097180    7.07850775066414
C        14.20742745658208    1.37821594482424    7.81695756138437
H        14.51357427762337    1.37392790940496    8.85121249440241
C        12.96780204658839    0.82446230046011    7.46131322631951
H        12.30759836134564    0.38655761455261    8.19576806914301
C         8.54662095634121   -2.40459484759095    6.69441753106945
H         8.58917461799709   -3.39291575818648    6.25719049218948
H         8.07383427093482   -1.68827373642150    6.03717632219568
H         8.06822954815906   -2.42235994508465    7.66374298371748
C         7.65655793661536    2.46173023222283    4.39851071736674
H         8.18226538248078    2.46050351632100    3.45674792502709
H         7.60476951617293    3.45757107879724    4.81558149608467
H         6.66627733318525    2.03981206552853    4.29728708533066

