60
CSD_code = ZAKBEV | q = 0 | S = 0 | Stoichiometry = C28H25N2NiPS3 | MND = 4
Ni        4.68447499892557    0.50255506287730    8.75352855562839
S         6.42958246124231    1.79005605627894    9.46776778478225
S         5.99171469975045    0.45830548401637    6.98114197985673
S         1.75927789454388    0.27809485830702   12.15124884741979
P         2.95790496131909   -0.43093234844097    7.80933180311342
N         8.40821855369206    1.30017055169980    7.74556228975085
N         3.86153933251215    0.48959574797463   10.38153669377011
C         7.10599168279232    1.21127766930590    8.02738052597826
C         9.33379163093074    1.91759886673664    8.67791188640659
H        10.31213065911665    1.45252828122401    8.54113055564600
H         8.97999269916982    1.72123340091708    9.69345386469945
C         9.43020058661738    3.42150240404593    8.44237303644737
H         9.76418531639406    3.62570781149164    7.42704734791890
H        10.13904560685117    3.85840571467093    9.13972342744909
H         8.45989898669548    3.88672411349341    8.59601506137362
C         2.92976515962621    0.38755519197214   11.10325130092361
C         8.90788635497858    0.90202376150105    6.47764390847523
C         8.43472845491215    1.50737693456593    5.32023342494078
H         7.68057907730844    2.27653516158809    5.39001398608824
C         8.93377017196391    1.12052995935499    4.08999388321692
H         8.56522260145313    1.59334270424120    3.19223651377988
C         9.90515348795955    0.13717518102626    4.00977382326458
H        10.29412900290902   -0.16166141015354    3.04823829740047
C        10.37618463079178   -0.46484476114308    5.16450579416029
H        11.12881683387473   -1.23663400003932    5.10560596222088
C         9.87985615490642   -0.08698356765188    6.39868438021290
H        10.23304933271678   -0.56724693011964    7.29934495509123
C         3.07115657003767   -1.40992895231272    6.27903863939453
C         3.52081291786768   -0.76704589578961    5.12752402632994
H         3.76319474301097    0.28633301032981    5.16733895912244
C         3.65198466714086   -1.47107453573202    3.94654505738626
H         3.99992437598610   -0.96841829638766    3.05620868627806
C         3.34060977108329   -2.82132760338035    3.90579830057220
H         3.44409935526454   -3.37189956499565    2.98250332994381
C         2.89989216318946   -3.46500768779703    5.04995389122744
H         2.65772137569272   -4.51729121266335    5.01937474095557
C         2.76935586869075   -2.76618067515187    6.23743432705955
H         2.42667520081552   -3.27089641277436    7.12958334569488
C         1.98546241704022    1.00753432078112    7.27105678480217
C         2.37246055482765    2.25330468472992    7.75673630534431
H         3.23850236481519    2.31593716010246    8.42798502155452
C         1.67214521129595    3.38894883182246    7.39433614051689
H         1.97075164788621    4.35438294131660    7.77436035637982
C         0.58535472665868    3.28231082815941    6.54103121907367
H         0.03376282020742    4.16666063216632    6.25840374702951
C         0.20726791170264    2.04543091099481    6.04147572682459
H        -0.63498679422904    1.96970625096465    5.36929183104078
C         0.90552645636044    0.90632808034376    6.39923311676631
H         0.62386581251861   -0.05865556537403    6.00019346336284
C         1.86564771220122   -1.41898384132896    8.87046619898708
C         2.48033117399918   -2.41850020311014    9.62220325012892
H         3.55376389572666   -2.54848674525450    9.54374158643115
C         1.73288749089701   -3.20428160244832   10.47656855705742
H         2.21303153149630   -3.97174018775460   11.06538466932181
C         0.36852205878821   -2.98845978450371   10.59297205720044
H        -0.21560318472104   -3.59025470255854   11.27297696034313
C        -0.24171877961793   -1.98689491965681    9.85802219856314
H        -1.30100825557234   -1.80680609982215    9.96623735561919
C         0.50173832768579   -1.19737807144319    8.99733954034727
H         0.02557655731636   -0.40105699111810    8.44430071937198

