45
CSD_code = ZAKCIA | q = 0 | S = 0 | Stoichiometry = C18H20N2NiS4 | MND = 4
Ni        6.84355933902302    3.50051589094523    9.61934069753048
S         5.48903247075198    4.33438350837010   11.16569869902161
S         5.51351641537542    1.75600213480544    9.95083053143514
N         3.90597305806853    2.34811268996088   12.00441324582724
C         4.83366927607895    2.76304562209125   11.14259048110573
C         3.39546890107902    0.99015447330977   11.96170424368031
H         3.10528467042306    0.70565590022071   12.97506883848573
H         4.19855527825719    0.33411538898910   11.61701569330517
C         2.19814468893050    0.88439608503773   11.02267842132084
H         2.49265369484542    1.15475643455992   10.01208786552254
H         1.40061165299457    1.54871456993522   11.34868507846770
H         1.82498596930259   -0.13559647107428   11.01476176357079
C         3.30709589252268    3.25833149859634   12.91633490439346
C         3.41023933641760    3.03234163307441   14.28234644883477
H         3.96351596040575    2.17885141344996   14.64536036933649
C         2.82302896698055    3.91563422179619   15.17004420809659
H         2.91056651107708    3.74157950204261   16.23195068233562
C         2.13613212243752    5.02237885252779   14.70003931746535
H         1.68333341158975    5.71166773616144   15.39651632124476
C         2.03583526517324    5.24645605910743   13.33732661539943
H         1.50274160676280    6.10871814352623   12.96685014447456
C         2.61725989338879    4.36668794712836   12.44271958891114
H         2.54465935362599    4.53551131220234   11.37949954730824
S         8.19751793863226    2.66681341468113    8.07249977268343
S         8.17309111744485    5.24520869784294    9.28737573327737
N         9.78073586919294    4.65301302892136    7.23392452566700
C         8.85302368355621    4.23808482673863    8.09572886214764
C        10.29118998256347    6.01099207674900    7.27663394245769
H        10.58144557191888    6.29547855187520    6.26328642927123
H         9.48805016267556    6.66701082301963    7.62123982997108
C        11.48842972586918    6.11682612024243    8.21575888574322
H        11.19384168834838    5.84647183858223    9.22632762495476
H        12.28602801967458    5.45254325988674    7.88983549565169
H        11.86153671117894    7.13683696925234    8.22369719431076
C        10.37968417015094    3.74281386386567    6.32203638408306
C        10.27665046268319    3.96882012555696    4.95601909467092
H         9.72335038436797    4.82227756144033    4.59296493943411
C        10.86402416947819    3.08559483958667    4.06836117771306
H        10.77658963506173    3.25967161822203    3.00645026808656
C        11.55096757592986    1.97889873790913    4.53841586728236
H        12.00391388556714    1.28967346149595    3.84197300188763
C        11.65114261970032    1.75479723645878    5.90113179702762
H        12.18428865423463    0.89258694508979    6.27165424078245
C        11.06955304252399    2.63449745505695    6.79569881285845
H        11.14208119373500    2.46567400076190    7.85892241296456

