71
CSD_code = ZAKFID | q = 0 | S = 0 | Stoichiometry = C25H40ClCuN2O2 | MND = 2
Cu        6.43628125070424   12.93071556211298   13.83837879073936
Cl        7.96606361342741   12.95466190960924   12.37878654899140
O         4.01154415075739   12.79916148261079   18.49647760224342
O         1.66595077627273   12.92406699748962   16.03783757678205
N         5.16144130900966   12.83930211905402   16.52106235681261
N         3.69457256997455   12.94758393545520   14.98414410554732
C         5.03530919066385   12.90561649285547   15.17383380293734
C         3.93585592625098   12.84386606565391   17.15135304342991
C         3.00655563320450   12.90487204064989   16.17751752977975
C         6.22915058339666   12.80486751823056   17.51064212420987
C         5.38021908578148   12.54464633738006   18.79453298466359
H         5.47273391577474   11.49832179181751   19.11027541435444
H         5.67033578368726   13.18822783281943   19.62662801826082
C         2.75670323206161   12.98294953943415   13.87075966650988
C         1.42844539662005   13.20014103012408   14.66152644950317
H         1.09547856616945   14.24154432045160   14.57403647420819
H         0.62491901977950   12.54595417101751   14.31930703407383
C         7.00085543814955   14.14238911042322   17.62006034034683
H         7.57028137275312   14.05413679544324   18.55422989047517
C         8.02393135323159   14.29145455117472   16.49407397702171
H         7.52364553726421   14.32120493822496   15.52296638406715
H         8.56516545692447   15.22883635203371   16.62775170927259
C         9.00650717132634   13.12781831291658   16.49135973324692
H         9.74009813050253   13.27606815165501   15.69847461120789
H         9.53996694186251   13.08258778559649   17.44517675672211
C         8.26481141597464   11.81773312251146   16.25072177947070
H         7.77895369793155   11.87996985028237   15.26686890642760
C         7.19344221395982   11.62313315121485   17.32227533342753
H         7.69479792144191   11.46186986789538   18.28099613917471
H         6.60844131674437   10.72772830370747   17.09566574717684
C         6.07124875309349   15.37193592462946   17.77014745735296
H         5.14729961172461   15.05047762683118   18.26205277152897
C         5.68394583755598   16.03297118284106   16.44641748328354
H         4.91917285056369   16.78524445993090   16.62980369324895
H         5.29098397626793   15.31409186833601   15.73254942809327
H         6.53994970797989   16.52662200110288   15.99485110273291
C         6.73005438984280   16.41432725818419   18.67553271281604
H         6.92132919047607   16.00754825278893   19.66647160765353
H         6.08266669836745   17.28117703662488   18.78405240279062
H         7.67464069394998   16.74728722662032   18.25231964161618
C         9.21993978725256   10.62914217859592   16.23786278337721
H         9.75024373115131   10.55005245843027   17.18547540720370
H         9.94995673829873   10.74990084243256   15.44235864651699
H         8.67811874990627    9.70187913438526   16.06610615728173
C         2.71258780561836   11.65895373833617   13.06963384676159
H         1.80471686777168   11.73927017521857   12.45801507794218
C         3.88856668727765   11.55292341221944   12.09879854752463
H         4.83533353237128   11.53240579834372   12.64412589893888
H         3.80027851248954   10.62412402507848   11.53397785673335
C         3.91369617264831   12.73598279513362   11.14004193279913
H         4.74350097707798   12.61835209229532   10.44264002095685
H         2.98561429782890   12.77282165664573   10.56240135289628
C         4.09116449765317   14.03555533769809   11.91719143070419
H         5.05171242298483   13.98322999574130   12.44869615068987
C         2.96568723278422   14.18714335503264   12.93907934370274
H         3.14493899053019   15.07523167896837   13.55104526807692
H         2.02886376921206   14.33875571901441   12.39512317738090
C         2.54517489502799   10.40834096735720   13.96763870299328
H         2.00188429944706   10.70094376624907   14.87219108194480
C         3.86288307448515    9.76806715485370   14.40694085818987
H         4.36628810543537    9.30121192154514   13.56495552128266
H         3.65933358125635    8.99705293685308   15.14755102781717
H         4.54081852646917   10.49389794661787   14.84777680321930
C         1.69636388397002    9.36006288499188   13.24584727187130
H         2.17241917843804    9.05485937024499   12.31716520328579
H         0.70702027999571    9.74915421276349   13.01377100193075
H         1.57595637255296    8.47851937413435   13.87092998416800
C         4.12473351017677   15.24305320201627   10.98658503681022
H         4.95694330113122   15.15327092607148   10.29398542898499
H         4.25003855321153   16.16270683826060   11.55353501123118
H         3.20237198412407   15.31312182676024   10.41233503459064

