60
CSD_code = ZAKLOM | q = 0 | S = 0 | Stoichiometry = C17H36N4O2W | MND = 6
W         2.99112891239407    1.99285547972526    3.05024510642156
N         5.41644275779372    2.39675537744643    2.77380928158875
N         3.97090980195574    0.32088135437254    4.36634916893445
N         3.63583268679333    0.42178550803288    1.40081900322937
C         5.89706361639923    1.91102789941234    4.06769670300477
C         5.42437311547703    0.50494584900395    4.45880342278003
C         3.63653203572322   -0.85846924834408    3.56631379118483
C         4.09144407646880   -0.79011825987571    2.10556853685978
C         4.76200551628197    1.09414055854470    0.72927222593935
C         5.89004062970290    1.58852656126217    1.65355499266397
C         5.72364749275606    3.83786488054014    2.64050618840964
C         3.33554863050890    0.19318856695732    5.70133555291571
C         2.59276628227702    0.02944539343154    0.41213267377195
C         7.21219355131598    4.17847374102228    2.80997988993186
C         5.22699028584542    4.41449074951761    1.31828094281268
C         3.67057418926135   -1.11063146794037    6.44364645852854
C         3.65295138423775    1.37486178998049    6.61381640655750
C         3.13171660029031   -0.77867987179016   -0.77988238072148
C         1.77565688431133    1.19739897300038   -0.12850162872309
N         2.73754285149456    3.26550199125841    4.24543818910159
O         2.64836309300092    4.21561406169839    4.94939356417215
C         0.91767482299916    1.16699833278980    3.34716345781562
C         2.20450843128095    3.35365152167651    1.90673089948640
O         1.70244388732376    4.24173823766464    1.36230725934961
H         5.54388250127252    2.61854762874941    4.82149249506412
H         6.99954674591999    1.89007817278838    4.10346568201807
H         5.93820487828017   -0.24179630259812    3.84539472510516
H         5.77542081494812    0.33635448831390    5.48191288637948
H         2.54925298017101   -0.97094929610773    3.59207203861794
H         4.08796552382557   -1.77316545182982    3.98769654997655
H         5.18068001089706   -0.87044418523465    2.04603029812401
H         3.70137803515625   -1.69596843039254    1.62558357412832
H         4.35080904942016    1.95575081676454    0.20169275844970
H         5.23446090046181    0.42524148498719   -0.00740761420133
H         6.57825947613121    2.15773055510596    1.01857653007226
H         6.46929256052974    0.73771726495972    2.02729825229978
H         5.16226808475732    4.33171477781260    3.44146366501901
H         2.25826897161180    0.20832564561271    5.51287225581871
H         1.89730693383299   -0.60744866535848    0.97172006026818
H         7.55047858779558    4.02944308479845    3.83193943789628
H         7.36300182920525    5.22557672747714    2.56296260543908
H         7.83699690462834    3.58413148852990    2.14517717555663
H         4.19878541493619    4.11348619481382    1.14629380444369
H         5.84568808166958    4.10807179722890    0.47723641607854
H         5.25339852407926    5.49917903287660    1.37528748810153
H         3.20217897955730   -1.97704124450352    5.98333144733758
H         3.29375924194962   -1.03805059489677    7.46033399772556
H         4.74433370084224   -1.28294611554656    6.49895840576490
H         3.49235271254193    2.31340606731212    6.09672722890692
H         4.67232484965727    1.34235454552118    6.99343513241168
H         2.97976918101534    1.34961042189428    7.46698136811356
H         3.84763038816804   -1.54402544112152   -0.48554677076733
H         3.60141210913876   -0.12696676398502   -1.51296203881889
H         2.29812143866177   -1.27755601718331   -1.26786659841873
H         1.26596574314815    1.70725068681150    0.68291684819969
H         1.02721199604659    0.80823705524155   -0.81532659135451
H         2.38849144286707    1.91175478109802   -0.67219296382088
H         0.67673258346196    1.00789072722209    4.40187383906093
H         0.78162220093632    0.19746106128155    2.85268249525421
H         0.12189508658484    1.80769602215971    2.96571340973607

