35
CSD_code = ZAKTIR | q = 0 | S = 0 | Stoichiometry = C16H10CrO7S | MND = 6
Cr        6.74772497521162    3.42298406930054    8.93933260065558
S         8.14401404305194    2.03643234844913   13.24157696762135
O         6.07107270904357    1.93770947084247   11.54000821813660
O         7.80285756916595    6.15814528432853    9.63231953681613
O         6.48003463506641    4.52701817990340    6.15344950960586
O         9.46239686610802    2.48279266995499    8.03186232783898
O         9.78741456218368    1.57195257389601   15.69577493880580
O         5.66457992736263    1.01784365423911    7.49034527504921
O         4.01014599245256    4.66203052859737    9.11399260222773
C         9.30823299141984    3.46531642791227   11.42746014160781
H         9.51405500479444    4.00734960541517   10.52169476843206
C         9.73676058383243    2.62509029921390   13.54062725457674
C         7.42238106804371    5.08942718962903    9.45829785050884
C        11.65910574863342    2.69206223897645   15.22176897142625
H        12.38102969277064    3.29079787354390   14.70669969013647
C         6.95117410690319    2.65733420754302   10.84420341110183
C         8.11294308331131    2.79881886218052   11.65567781572439
C        10.21345797101502    3.37033657122696   12.47601197633822
H        11.18751529351509    3.82407645447567   12.47124949081068
C         8.45058065754827    2.81293064723258    8.46107813966829
C        10.40917571150188    2.33145519215960   14.76386556872537
C         6.05510443052859    1.86301649737179    8.16615908222274
C         6.59366710517718    4.11117435208652    7.21993747838297
C         5.02820734151693    4.12974240141970    9.17433160514988
C         4.79338763257799    1.60185884002837   11.03815678882504
H         4.90241902354738    1.01209792689856   10.11860678590145
H         4.23894748912996    2.51895544768285   10.79975718636634
C        10.62372339107180    1.44732088608588   16.73303804698962
H        10.28642402362571    0.86870277799191   17.57005815489358
C        11.79059554543592    2.11451226839664   16.49979928011322
H        12.63427087427889    2.18482971983115   17.15482929122359
C         4.07023372055195    0.79907016307281   12.10893106285214
H         3.08204026577560    0.52017183780931   11.75594973194995
H         3.97079663640441    1.39020056450458   13.01539036287994
H         4.63182932745038   -0.10125803219429   12.34335808643528

