52
CSD_code = ZALHUS | q = 0 | S = 0 | Stoichiometry = C21H24ClN3O2Ru | MND = 9
Ru        3.45092002393616    2.42162996006248    2.98556885373004
Cl        3.89062201196844    0.20865831076846    3.64772125600201
O         5.87796966283154    6.27207513554233    8.43877207031965
O         5.69047740228443    6.37303526180831    6.20446550606410
N         4.79313865669120    2.97692669638362    4.27333561952425
N         4.61642122496032    3.38198333625063    5.48182588916684
N         5.81742556950064    3.64363305003238    5.98930030427583
C         5.17951416883698    2.22003552370223    1.92045907575887
C         5.29078403903905    1.76976561328593    0.61364453129321
H         4.40671346711396    1.47038353950034    0.06555147175003
C         6.52808617820819    1.67891386427551   -0.00619973715788
H         6.58918729863094    1.33056340330861   -1.02793101406289
C         7.68949921491720    2.01968428484724    0.67092884932246
H         8.64695567298472    1.93776049637214    0.17755989643529
C         7.62005179198677    2.44934793793673    1.98189305283209
H         8.51575748199206    2.70197767169091    2.53137276187205
C         6.37580785641244    2.54510073185057    2.59414729912820
C         6.12182968942384    2.97153952856925    3.94907345308601
C         6.78645189867950    3.41599455070897    5.06902857015817
H         7.82410946847224    3.56914860785092    5.27452363055347
C         5.94704283503411    4.22155372998529    7.28908710641117
H         6.91259196333653    3.96187492554004    7.72934607976365
H         5.14805472111417    3.83882089808574    7.92957221802924
C         5.82152889946993    5.74771763424684    7.21769220900064
C         5.75970025685132    7.68984886110001    8.52189447507771
H         5.85410259291457    7.93915938713212    9.57500334782914
H         4.79034530655461    8.00994783044900    8.13622113480062
H         6.54782278769666    8.16996062272683    7.93955932554000
C         2.37002842406361    4.35468886531947    3.03323911570654
C         2.46735993500246    3.92570651700274    1.68998115681443
H         2.86812299483433    4.58840799890771    0.93212874123781
C         1.93909029523571    2.66354409056621    1.29892087417346
H         1.94882783604317    2.38133154192122    0.25116774859797
C         1.36279175526457    1.80909789565028    2.24897674353948
C         1.20237519111422    2.27805599376966    3.58960671053716
H         0.67653446317040    1.65428241538053    4.30284308942695
C         1.67325218219860    3.52797311469253    3.96421698819582
H         1.51027599433285    3.89125037482607    4.97215065797812
C         2.86473427023842    5.71328809029039    3.47552565504818
H         3.05789578744702    5.66234072748674    4.55402697478921
C         4.17052867778791    6.11494917070924    2.78655733678153
H         4.63927823086023    6.92847983075092    3.33390063034584
H         3.99374835377772    6.44527359289070    1.76558891205455
H         4.86309677037414    5.27356255864862    2.76234245773005
C         1.77474498468297    6.76129930265545    3.22665989344368
H         0.86509855953339    6.50848380875804    3.76803218394047
H         1.53859354218326    6.81745136751940    2.16557291369573
H         2.11489636418523    7.73960305594998    3.55748092767621
C         0.84288653014507    0.45200248835806    1.87640722357358
H         1.47099517271705   -0.31225988272075    2.34055797770349
H         0.86267293487479    0.30560479473284    0.79835795787978
H        -0.17664139190900    0.31774089192076    2.23743989262625

