77
CSD_code = ZALJIG | q = 0 | S = 0 | Stoichiometry = C44H8F20N4Zn | MND = 4
Zn        4.49727529607102    5.94159608189534    7.40801575176118
N         3.68289068064167    5.77407423915109    5.55642176199281
N         2.82882763886300    5.11686029257863    8.21601981083212
C         2.25082482737649    5.31542357769621    3.82771355655931
C         2.46831822441151    5.25009141520367    5.24832573662646
C         1.55231992420099    4.73394114636787    6.16282570588918
C         0.27669946028924    4.20275395220578    5.62355369402345
C        -0.93588563989321    4.83451117155791    5.89053718870387
F        -0.94747775004653    5.94118474626849    6.63564646055774
C        -2.13863947640651    4.34655122937408    5.38894838782313
F        -3.28406948534565    4.97256459419522    5.65730753012830
C        -2.14215082076969    3.19803324146705    4.60165362771002
F        -3.28721131419532    2.72240272396187    4.11751801723895
C        -0.94200860390076    2.54900909705236    4.32362781366903
F        -0.93879255752830    1.44751178982266    3.57290807240888
C         0.24902626616884    3.05551319248630    4.83405888411320
F         1.39048696664513    2.41582055476330    4.56781617423248
C         1.73811229595183    4.66866299566649    7.54236760185194
C         0.80358003270445    4.07364837891410    8.46011342132994
C         1.34625776332717    4.18424281548532    9.69310883525513
C         2.61255852180832    4.84702394691103    9.52933086180873
C         3.49243933548850    5.13067837096516   10.57200027225080
C         3.05933212635372    4.76713448809362   11.94334925143504
C         3.69485231918897    3.75184990349788   12.65443701442286
F         4.70547637415630    3.08851686893926   12.08723337393472
C         3.29512957208585    3.40030117799286   13.93980533832601
F         3.91942391717397    2.42197992802687   14.59567400648837
C         2.23557729185590    4.07512343573615   14.54061210978941
F         1.84534994523081    3.74700080448265   15.77016704884960
C         1.58590307842269    5.09420126811961   13.84888327271944
F         0.57227327944915    5.74446146806596   14.41965496342413
C         2.00100624538292    5.42770812329667   12.56326917694172
F         1.37456825080062    6.41213655175707   11.91623759254524
C         4.24661305496890    6.16456050323981    4.38409660807057
C         3.35908127326619    5.87200822705880    3.29032694093232
H         1.37081382122399    4.98493537017390    3.31239185662107
H        -0.13205741571052    3.62175599974076    8.19594125181070
H         0.93542603370291    3.83937667576434   10.62138954160140
H         3.55754499088554    6.06196973647373    2.25409902873190
N         5.31173009201120    6.10895722268840    9.25959275302825
N         6.16578609472505    6.76618999115411    6.59999987776072
C         4.74803488039445    5.71841226177360   10.43191181452476
C         5.50221196334865    6.75228790589366    4.24400774031130
C         6.52632865542511    6.63288389907623    9.56768417160437
C         7.25653310719757    7.21431812050596    7.27364355786951
C         6.38208744957622    7.03595520521322    5.28667938862177
C         5.63555033588178    6.01099876353827   11.52568506397177
C         5.93531032982668    7.11585367191119    2.87266220178277
C         6.74380733774692    6.56758282923063   10.98829934913746
C         7.44233016705574    7.14902854741515    8.65318403124309
C         8.19104696248044    7.80936968586467    6.35590259716994
C         7.64836900623035    7.69877507528858    5.12290669991453
H         5.43709014056954    5.82102876452234   12.56191228020332
C         5.29978697949903    8.13113878389912    2.16157489644101
C         6.99363874910649    6.45528679089356    2.25274349969969
H         7.62382211591363    6.89806275844713   11.50362069234064
C         8.71794026115595    7.68023931890756    9.19245753295384
H         9.12669096501462    8.26124824594744    6.62007262574236
H         8.05920724837988    8.04362803365366    4.19462404712085
F         4.28916129403982    8.79446940181986    2.72877835590398
C         5.69950821250944    8.48268925626654    0.87620619619205
C         7.40873976412243    6.78879478969701    0.96713001941353
F         7.62008017755347    5.47086070244977    2.89977513385094
C         9.93052720488909    7.04848717966829    8.92547785162230
C         8.74560720047045    8.82748308289978    9.98195072501659
F         5.07521247152200    9.46100941998657    0.22033677380237
C         6.75906231373492    7.80786974046347    0.27540014819359
F         8.42237255601034    6.13853820766923    0.39635992449247
F         9.94212429535145    5.94181262940135    8.18037004050506
C        11.13327738269455    7.53645134482786    9.42706957134072
C         9.93663936773320    9.33399203356076   10.49238470054562
F         7.60414421854244    9.46717314865183   10.24818874006069
F         7.14928992155683    8.13599372121085   -0.95415427645537
F        12.27870939888057    6.91044074687311    9.15871276848857
C        11.13678381870574    8.68497070265784   10.21436242771487
F         9.93341963607357   10.43549159266969   11.24310099405119
F        12.28184217976808    9.16060633895067   10.69849754040567

