56
CSD_code = ZALJOO | q = 0 | S = 0 | Stoichiometry = C25H26ClN3Ru | MND = 9
Ru        1.68078436530701    3.74842072718257    6.82949484341120
Cl        3.93576701317048    4.34348874662227    6.50145918074333
N         0.93866665244594    7.58207821552624    5.84712522388749
N         1.04726403302926    6.61636347738865    6.74854091154448
N         1.26812667236825    5.51759068073789    6.11024099043027
C         1.29804381282841    5.73906590102088    4.76212213353856
C         1.07564188612685    7.08844221503960    4.59529287565942
H         1.02090947272484    7.70543416630801    3.72419865801131
C         1.52364927539860    4.54350436032245    3.98683797565617
C         1.71397507506018    3.41645525702574    4.81385625048846
C         1.96327901299299    2.20623219233325    4.18370954434464
H         2.15372451509396    1.31617669400471    4.76928920090297
C         1.98789882756442    2.11357843586239    2.80012814916404
H         2.17718468934651    1.15712015915877    2.33262785016556
C         1.78428244356955    3.23357897852841    2.00806680728577
H         1.81498942214684    3.14794715392882    0.93168357281057
C         1.55693088169851    4.46078393100273    2.59973203774623
H         1.41457948849525    5.34861411004675    1.99997917243466
C         0.57797258449412    8.91931942481353    6.23318151435590
H         1.08974046800419    9.63095881626164    5.58122331646658
H         0.92266027494034    9.05907005018867    7.26188433496613
C        -0.92063140377495    9.10290411705739    6.15593588600716
C        -1.74926474687452    8.20922356871243    6.82330735008529
H        -1.30536507017884    7.40609469791606    7.39348540229761
C        -3.12302720580016    8.34481996977047    6.75252413398965
H        -3.76072653225023    7.64583979267217    7.27312791229173
C        -3.68044969267310    9.37867252949235    6.01784144768723
H        -4.75330353984383    9.48676225197755    5.96344670323630
C        -2.85932721658915   10.27236979733796    5.35294902000661
H        -3.28987487277068   11.07888963824863    4.77851570484569
C        -1.48296784216379   10.13258408629462    5.41706546275355
H        -0.84534885594929   10.83073268047371    4.89383351668954
C        -0.20483194811648    3.46819504205914    7.98594551325761
C         0.13823741315610    2.24877247789179    7.35708715454920
H        -0.59194934042793    1.72301287121079    6.75246031743286
C         1.39454716924782    1.63403764244671    7.61563746351646
H         1.60755333333672    0.65459658513537    7.20027123468216
C         2.33344378201891    2.25996161097699    8.44754105223958
C         1.96540506357139    3.46488418551442    9.11989005408545
H         2.65839520606193    3.90412285628659    9.82744270976650
C         0.72054865852392    4.04226564282108    8.90655506538094
H         0.43352332439977    4.92943540217733    9.45971304322514
C        -1.57877461364547    4.07931891065902    7.82389720156199
H        -1.54020982763006    5.10138725880479    8.21994688875331
C        -2.00834435981501    4.15269116733073    6.35712723571464
H        -2.23658841106841    3.16468777743360    5.96554394819716
H        -1.21244572780527    4.58261813166377    5.74902804441215
H        -2.89729570758830    4.77150296602508    6.25637229980638
C        -2.59622225448736    3.28546482224391    8.65024933327349
H        -2.30797505479347    3.26797477859883    9.69952208036417
H        -2.65907278253869    2.25938055904832    8.29411377078721
H        -3.58155862789406    3.73881266185157    8.56967725258482
C         3.68249178207681    1.65665973237971    8.70168884657877
H         4.44545402795677    2.27129248780169    8.21727213679656
H         3.74575638836366    0.64861249848214    8.29690427673273
H         3.89772861916557    1.62919510791422    9.76960599240790

