60
CSD_code = ZALJII | q = 0 | S = 0 | Stoichiometry = C26H28ClN3ORu | MND = 9
Ru       10.41886842592836    9.45724598160959   -0.68325057534858
Cl       10.48862421915852    7.46690061590597   -1.94296500314146
O        17.42588502743834   12.95382266245317    3.41695763744683
N        14.35510729223011    8.81360829624749   -0.12028392992810
N        13.35875711063701    9.45901107640816   -0.70899394155259
N        12.26083197150657    9.03414810439201   -0.18347885391315
C        12.51636978650285    8.10026559823808    0.78035461800621
C        13.88649708231697    7.96480865389545    0.82248313900615
H        14.53024348491225    7.34948135018086    1.41361790713543
C        11.32844286429865    7.59958314687772    1.42933106121584
C        10.15870981353319    8.16242013313370    0.87685073848036
C         8.94555467825819    7.74676126095183    1.40548411072125
H         8.01607386426376    8.11730376324554    0.99221271828408
C         8.89794441073583    6.84323642075200    2.45689980249549
H         7.94035373054365    6.54072661112034    2.85774332578767
C        10.06222458462449    6.31387727630358    2.99279035493053
H        10.00963412792648    5.60431894158771    3.80563885110270
C        11.28813596832544    6.68454744389673    2.47472558023136
H        12.20523906172146    6.26759933295070    2.86636756976573
C        15.72588698350526    9.14746521658739   -0.40599614875819
H        15.74335082411155    9.58054669023384   -1.40965491624310
H        16.32739862671173    8.23572587205811   -0.39256868374365
C        16.23451725034214   10.14178311074326    0.60988299998615
C        15.61114970616987   11.38137224279412    0.72464449640518
H        14.79173938504472   11.62046771083841    0.06259624287621
C        16.02769384468234   12.29163982962508    1.66849143220630
H        15.55194028885338   13.25416044931490    1.76851989417187
C        17.08963793236097   11.98670509556245    2.52498696964341
C        17.71529244698758   10.75025811476042    2.41247681542753
H        18.53714059656133   10.48097102348348    3.05649928155544
C        17.28005881874885    9.83874964057286    1.46398697420927
H        17.77468961125495    8.88074680585233    1.39159203128722
C        18.48729545476992   12.71150080385178    4.30941408097567
H        18.27782624985857   11.85651498085242    4.96002912244161
H        18.57319520934686   13.61164047792275    4.91577120902743
H        19.42909079745230   12.54331486500097    3.77740738834104
C         9.98161034473759   11.53762523861787    0.07885029375530
C         8.75423496659535   10.85912654102612   -0.09935531775329
H         8.03721213931342   10.83947821779780    0.71608764717617
C         8.40657429431888   10.29105711533576   -1.34307904542153
H         7.43055356437714    9.83618742321747   -1.47742473948222
C         9.27194584226593   10.42462335552750   -2.46071076539031
C        10.48515757335453   11.11377427653069   -2.30405395109577
H        11.13243968059421   11.27330406769318   -3.15694628445726
C        10.86340033742148   11.59664301675277   -1.03388177290980
H        11.79490151325257   12.14611003882413   -0.94479694473055
C        10.31530721738972   12.21895713549658    1.38690493956659
H         9.47576413967579   12.06178578532988    2.07443957287116
C        11.56435184077075   11.60091029259602    2.02094722755716
H        12.43483913513236   11.73991455549766    1.38289056689273
H        11.41049208513229   10.53214762926270    2.17326773052986
H        11.76947950025936   12.06464609601334    2.98329509562687
C        10.49160570928829   13.72662253036737    1.18184181928012
H         9.61106272837676   14.15282086217151    0.70486860738800
H        11.35692136233358   13.93593539667035    0.55711346729669
H        10.63678476772468   14.21899784153265    2.14051347810373
C         8.87932026994293    9.84716828335824   -3.78514505487459
H         7.80121741289659    9.89716427544221   -3.93133338653887
H         9.17856131746923    8.79482101007717   -3.81094189013793
H         9.38096072576305   10.36294941466816   -4.60191559379896

