55
CSD_code = ZALJAA | q = 0 | S = 0 | Stoichiometry = C22H28ClN3Ru | MND = 9
Ru       13.28440915273262   16.45569238910879    1.83165843607062
Cl       15.56697732632347   16.08498012015281    2.27692408957744
N        12.94546205284645   15.12188692807009    3.21733209646649
N        12.72537793876474   13.85827931771375    3.08282516656764
N        12.67362111611277   13.33366492486370    4.29887685727404
C        13.37398070006508   17.57204098618405    3.54035100720262
C        13.60650792780055   18.93714357035145    3.61976899314485
H        13.74491220700192   19.51904172238879    2.71773193295069
C        13.68019334540738   19.57868740410701    4.84714192322389
H        13.85484450779562   20.64520135328335    4.88224852674019
C        13.54463217658275   18.86848627769259    6.03054671467408
H        13.61367477155800   19.38001845430080    6.97948311020433
C        13.33606920766202   17.50358006166124    5.99225106147403
H        13.24729520434584   16.93004955723936    6.90414916485878
C        13.25246563213889   16.86946500196080    4.75816445620266
C        13.03393578767065   15.46028052416237    4.53834837894686
C        12.85230856126961   14.28871485442606    5.24049944583577
H        12.85686731522076   14.07261070742769    6.28743626113528
C        12.35330721953099   11.94840094580729    4.49721569263814
H        12.98869393345855   11.54974397760476    5.29245640031896
H        12.57975486481193   11.43307104668282    3.56168724265463
C        10.87455275465733   11.76762860103557    4.85637732813222
H        10.69796064523790   10.71251510063905    5.07152158949314
H        10.65169567642519   12.33692650716682    5.76178322194655
C         9.95213408117782   12.22451054322146    3.72828439754613
H        10.16249096971873   11.63624785966209    2.83273871983367
H        10.15712005679283   13.27052441501515    3.49353071923398
C         8.48433188318822   12.07268754911734    4.10608910141241
H         8.25098662190667   12.67291067047437    4.98286476548494
H         8.25139353015900   11.03415996350726    4.33051818862303
H         7.84529058953779   12.39774519479314    3.28883581449925
C        11.36585195471581   16.18911800783073    0.74260846766997
C        12.28890477086023   15.32164514492796    0.08720940702352
H        12.02721483315070   14.27845540305597   -0.04782170800067
C        13.50060932478974   15.80203738190249   -0.38990025383111
H        14.19489836771167   15.13653983436185   -0.88888438303920
C        13.83227149732486   17.18660757910331   -0.27370453984353
C        12.88737285400307   18.06581218709983    0.27256948660970
H        13.06679720641912   19.13564787057097    0.24975242648175
C        11.66732234090132   17.56961281355514    0.80973270368647
H        10.93008882391862   18.27205474357732    1.18113562797260
C        10.03115441656742   15.64616486563927    1.20172635728090
H        10.13316907680397   14.55956619841671    1.31254917463361
C         9.60298835851739   16.22545813983908    2.55181487678375
H         9.29462756567129   17.26326350075622    2.45406085201141
H        10.42896853990311   16.18275029894396    3.26258502084739
H         8.76309773012479   15.66123214659951    2.95165704271986
C         8.97040122910981   15.92227404891003    0.13079170908926
H         9.25799241676770   15.47367960956395   -0.81799031501134
H         8.85024165350015   16.99342400012285   -0.01807749416760
H         8.01233316168243   15.50629117928194    0.43389917520369
C        15.14702515767740   17.67654919998371   -0.80312280742817
H        15.94737515996295   17.33790940697961   -0.14037822351982
H        15.17366069529871   18.76354355086383   -0.84668587548058
H        15.33728510672078   17.27226635829524   -1.79706753205092

