92
CSD_code = ZALNEI | q = 1 | S = 0 | Stoichiometry = C35H51N3OPPd(1+) | MND = 4
Pd        5.03380667270910   11.24451336793333   13.28112886292949
P         8.05072465422786   11.99497237337822   12.50684709117828
O         6.66134485010322   12.15787097352636   12.01626504508900
N         4.02294489107168   13.07528484701902   13.44560445708430
N         7.35488560461104    9.35309932718398   13.16444641432858
N         5.52241469037947    8.24495402838068   12.94312378794608
C         6.00611525151844    9.49862955612142   13.06992753605397
C         8.36191726988982   10.29694919026354   13.15571056187313
C         3.47962433854286   13.48689438405732   12.29300792785835
C         3.56748106113786   10.37680999931354   14.38121846619537
H         2.93617228565419    9.75818342099269   13.74004317360444
H         2.93092746938347   11.13907790164039   14.83549052726090
H         3.98193621858366    9.75370146179252   15.17790474723484
C         4.19147440407031    7.84398477915295   12.61796639819870
C         7.69206162480205    7.99053479896238   13.19145497633718
C         8.36126452539460   13.12685308931920   13.98173469854186
C         9.63312936956522    9.89386632145537   13.43041209783931
H        10.41441206173273   10.63235938260860   13.47637365893174
C         6.51662263065553    7.31531010071391   13.02055518519108
H         6.32947190897483    6.26480713095878   12.95466060721944
C         3.48830551028602    7.02507617876169   13.50680679245656
C         3.98240599603131   13.87172220119498   14.51666788733530
C         3.67556072746218    8.18949138186089   11.35892614790830
C         9.97215412007285    8.53020270849173   13.62189167709347
H        10.99132087910662    8.26670472734836   13.85112730550343
C         4.02690808139883    6.63917792997956   14.86600016244145
H         4.94615926281768    7.19996501745816   15.06453642034102
C         9.02095984696678    7.58060484649859   13.43532412040878
H         9.23275193698790    6.52544882339807   13.48236270400400
C         3.42909207382509   15.14714054233449   14.45024381622848
H         3.41535924223426   15.76566074195893   15.33332279111003
C         2.91640446859224   14.74843879743126   12.16305282016989
H         2.49310381426874   15.05325704756004   11.21960738706599
C         3.49300421523770   12.51409114277465   11.15795046112449
H         4.51618672454725   12.39991923028394   10.78256133010603
H         2.86289039288138   12.85896339876589   10.34220310031124
H         3.13094693425453   11.53958419232181   11.51827412264365
C         2.42790271094213    7.68982021686024   11.01347162722551
H         2.00373145615659    7.91921968653738   10.05096609902811
C         2.90044113960365   15.59860069134949   13.25615665670480
H         2.47124098785682   16.58533592675907   13.18066202860046
C         4.47807391226418    9.03236396692275   10.38625054318664
H         4.94003860504824    9.86371049852104   10.94885783373002
C         2.24017549971611    6.55606262001742   13.11444885095548
H         1.67708569648284    5.92230867355859   13.77975753151112
C         4.34877681652730    5.14177454498065   14.90763888055536
H         3.44657595454630    4.55430578955151   14.76026994769805
H         4.77324225134722    4.88035404309162   15.87374873051902
H         5.06006747564109    4.86195107858908   14.13387102089374
C         9.14133911325124   12.18225457658094   10.98384720571701
C         8.89811486642146   13.60617191946095   10.48742009218192
H         9.27918809217787   13.71669674100710    9.47379893945476
H         9.40670666919074   14.33335859626637   11.11720731365537
H         7.83300652454411   13.83155398706453   10.47500630425140
C         7.81070168700350   12.34760725232200   15.17889376630834
H         8.50520451735315   11.57133638762625   15.49572205285485
H         6.84717452366432   11.87371772136201   14.91676460216214
H         7.65210844782521   13.01722099431016   16.02204417733017
C         4.52152968984858   13.36677703088086   15.81853801042837
H         3.73113841442178   13.37871945675262   16.56792436565020
H         5.32084189640462   14.01399837013837   16.17470987665826
H         4.88852858342583   12.34096178665193   15.71210320093978
C         3.63258579242365    9.64018395317258    9.26629759313691
H         3.33562578785431    8.87882332937928    8.54909539544209
H         4.21847463216037   10.38432528970044    8.73161198842683
H         2.73991455130191   10.12113165239883    9.65587711798459
C         1.71597040411466    6.88191373154284   11.88118055807050
H         0.74942397128356    6.50212079359729   11.58840728444502
C         3.02709820999252    6.97896275799827   15.97567913771397
H         2.69691262815443    8.01145843691660   15.89787491206780
H         3.49515264878023    6.83639510704185   16.94669554920554
H         2.15323100508347    6.33609005344418   15.92714331045642
C         5.58918645659964    8.18435914865914    9.75299845993979
H         6.28391086256856    7.79411012682014   10.49265460791307
H         6.15244323648100    8.78220066335715    9.03994060813796
H         5.15316978148568    7.34048025552184    9.22244538980199
C         8.55921980829154   11.17237295918447    9.99301900586455
H         7.50398870957521   11.37058313979760    9.81778073212388
H         8.66575043418412   10.15373725176680   10.36832625172936
H         9.08281296234598   11.23993703915456    9.04168040895572
C        10.63348354614465   11.93043237759954   11.14559628183687
H        10.84277000069798   10.87842264470687   11.32164024830269
H        11.06876270209573   12.52323916163134   11.94437728516563
H        11.13109903180974   12.21073105229869   10.21793992840673
C         7.52195816681195   14.37847960828118   13.74087584225752
H         6.48422653247768   14.10913650972566   13.54767495488989
H         7.89189046771078   14.94272282792051   12.88765417653755
H         7.55522781363558   15.02667168098536   14.61472839926303
C         9.81516472985007   13.50944400893468   14.22076039021340
H         9.87557529035033   14.12672215283428   15.11631306726766
H        10.21441913833241   14.08989344168861   13.39256213808471
H        10.44296915576562   12.63673094359416   14.38045405102122

