37
CSD_code = ZALRUZ | q = 0 | S = 0 | Stoichiometry = C17H14Cl2N2NiS | MND = 4
Ni        0.88934127549289   10.99812289126810    3.17277234181424
N         0.97652256227343   11.49946820400199    1.23840376860067
N         2.23191659712288    9.58690470387212    2.54665961321171
S        -1.30564502874710   11.51179100601033    3.33365539619945
C         0.75220618059995   10.34475012026055    4.97552945787493
C         0.36613577152096   12.53041353904458    0.66767388245720
C         0.52413087184182   12.85551885321652   -0.66769758380453
C         1.35908176467557   12.06770398691753   -1.44612842327846
C         1.99695170688938   10.99257455796218   -0.85833679083732
C         1.78478642902575   10.72497834281646    0.49487497057275
C         2.79805911673466    8.60265156568086    3.23857858999659
C         3.55684443635137    7.59976430837728    2.66387668580229
C         3.73532723532449    7.60606906553834    1.28852678299300
C         3.15733454410792    8.62498746712100    0.55815921558261
C         2.41584094958303    9.61074229814406    1.21014819001625
C        -1.23917887657711   13.13768936780106    3.92458112297071
C        -2.44572048028570   13.81595413975468    4.18016955614162
C        -2.48332742859466   15.11043418598960    4.65367811578744
C        -1.30028939295868   15.79110143110968    4.89689207621021
C        -0.09119917422348   15.16605979856618    4.65212408138351
C        -0.06545307577744   13.86965691123366    4.17058160938104
Cl        1.47942368595294   13.15851011487416    3.86090116717472
Cl       -3.93211714891240   12.99390341489939    3.87925824968609
H         0.36917248106081    9.31708168240900    4.96706570369061
H         1.78506189171870   10.37579274533902    5.35707957293175
H         0.12188187639285   10.94130803880127    5.64091248419207
H        -0.28855438883016   13.11971019087114    1.29818120985107
H         0.00414790826333   13.70311233079599   -1.08383425823493
H         1.51056489539578   12.28750519957939   -2.49225975696213
H         2.65740618036264   10.37562063954450   -1.44527797992996
H         2.64302279455997    8.61057665065597    4.30771635564505
H         3.99225955049755    6.83012129524852    3.28061910313733
H         4.31021593009379    6.83535184638410    0.79801464016703
H         3.27319774309917    8.64755707387081   -0.51292786676600
H        -3.43753498914225   15.57978297714071    4.83253551753285
H        -1.32235597535465   16.80150754748060    5.27150800372699
H         0.84094158040304   15.67922150739179    4.82828519510189

