105
CSD_code = ZAMYEU | q = 0 | S = 0 | Stoichiometry = C48H51NNiOP2Si | MND = 4
Ni        8.18507514991901    2.16003725449668    4.77509691042912
P         7.27408484380024    3.11570893991716    6.51971621331309
P         6.68971213877086    0.78707420416265    3.91858827524555
Si       12.46242116526370    4.37914750529052    2.92795647672870
O        12.08634400072000    3.97426058175326    4.46997983849751
N        12.08354860864112    6.82175535736180    6.61852579320683
C         9.71913142905440    2.01637952007147    3.54341072958083
C         9.95842761037185    2.88298804782134    4.41358404487718
C        10.82443906707561    3.86008964531963    5.09565657834745
H        10.33954409097447    4.84938591776809    5.07434819171891
C        11.08863000444146    3.47811038638576    6.53916802067275
C        10.84742893686299    2.20301275779098    7.02208148403601
H        10.42646934834000    1.45981935964424    6.35707218972661
C        11.13727399081331    1.87339285393029    8.33509679067075
H        10.92926731082514    0.87668695036031    8.69574842096320
C        11.69815419820409    2.81391285524043    9.18360587479486
H        11.93174206102946    2.55440137520658   10.20540171885945
C        11.95728685632286    4.08902423317535    8.72085256817072
H        12.39341899017861    4.83513344729067    9.36889629996882
C        11.64923512576377    4.42529636602559    7.40334239666973
C        11.89202585103403    5.74267071586126    6.95722709576927
C         9.83042650581282    1.15308838385821    2.40996208743374
C        10.48200915003687   -0.07797798965585    2.52980805059393
H        10.89218189714073   -0.36830606165224    3.48653455784250
C        10.59981994555501   -0.91168740828505    1.43560677207980
H        11.10772002695545   -1.86022656585018    1.53666363998980
C        10.06934585011674   -0.53834051637558    0.21038414143547
H        10.15993300921870   -1.19517664622529   -0.64213667000548
C         9.42267552502128    0.68133318169549    0.08393973450673
H         9.00808696318795    0.97672427798668   -0.86921303894265
C         9.30131667042381    1.52399231374073    1.17079169985035
H         8.79167322567691    2.47121439515091    1.07067736444765
C        12.96856648760062    2.80392830202111    1.97930331105056
H        13.80852984197161    2.31268606071752    2.46138213984375
H        13.26142964915604    3.03315718666650    0.96050448668153
H        12.15663054706392    2.08602956159930    1.93176281700782
C        10.98035459382025    5.20192315777575    2.05132648846201
H        10.14210304636804    4.51268421050412    2.01094306086634
H        11.21259609079361    5.49691565240440    1.03357769843732
H        10.65048156542208    6.08861732492122    2.58518033080664
C        13.95645470806063    5.58200493616963    3.08152077301070
C        13.50134367461533    6.98381583833766    3.49419795194089
H        12.97518964119844    6.95586883842358    4.44518859505375
H        12.84207347833970    7.41320154583428    2.74320900111379
H        14.36288072875438    7.64244102908488    3.60458930196375
C        14.94392177564609    5.06628507466066    4.12938954424743
H        15.79666467860043    5.74007029520888    4.21443922584850
H        15.31335669067475    4.07892727584880    3.86111217688878
H        14.46144063927632    4.99819973295193    5.10092086689101
C        14.67717851494993    5.68382263971372    1.73719144799467
H        15.50879484942915    6.38510923367528    1.80380839155058
H        14.00034638313165    6.03289690204238    0.96069209056470
H        15.07228430145236    4.71728372200169    1.43539735023433
C         5.66787628317662    4.00623278340405    6.34271675233930
H         4.90715475914886    3.28792769910049    6.04325313568390
H         5.76158225155791    4.76176254950565    5.56446681689095
H         5.38133293591810    4.49181549235274    7.27369512223266
C         6.83008682477959    1.76473783129506    7.66279736986701
C         5.86119909827796    1.84129865599963    8.65525137622114
H         5.30906851144389    2.75644046863136    8.80855594189434
C         5.60285434973980    0.74245737421083    9.45490612814828
H         4.84365389136929    0.80376391877314   10.22146237373784
C         6.31480081602005   -0.43328140212336    9.28216809478199
H         6.11190056559385   -1.28458920083931    9.91564212466542
C         7.28113767023653   -0.51788875806607    8.29360974460772
H         7.83259600630403   -1.43688553481707    8.15321014701032
C         7.52589900061038    0.57423256257993    7.48378783782707
H         8.25455124223302    0.52016513808984    6.67506472903776
C         8.09285342195336    4.30334911934302    7.64473416669823
C         8.46057239445621    4.00109359673233    8.94836320278900
H         8.27179323456980    3.01487835406800    9.34765623034698
C         9.06800326754239    4.96229658505905    9.73806840417825
H         9.34383678874799    4.72146189429439   10.75481131847729
C         9.32011906292793    6.22602572312269    9.23303588458886
H         9.79344722967524    6.97376110779407    9.85183980383394
C         8.97348178999472    6.52883519342221    7.92576204213281
H         9.18326765350425    7.50883929991787    7.52411972525240
C         8.36767604902036    5.57025206313220    7.13737810767582
H         8.10085238329602    5.79715690807039    6.11314723848178
C         7.01181859851952   -0.83748684893525    3.10757158108161
H         7.58822384559300   -1.46894126600982    3.78141988466277
H         7.60358929071536   -0.66675790247359    2.21021029270388
H         6.08189612903315   -1.34151051333683    2.85159917780597
C         5.16980356882377    0.37545604215907    4.84499777394939
C         4.05147667200102    1.20096876471864    4.81099676773890
H         4.03563082450403    2.05056863753080    4.14159690419186
C         2.95875851136147    0.93311657311409    5.61586959051435
H         2.09248898344495    1.57841197810227    5.57747524664808
C         2.97404849758597   -0.15514538749489    6.47179452737807
H         2.12333404425601   -0.35803425272524    7.10542161123683
C         4.08329803109417   -0.98338286530096    6.51055247606552
H         4.09944404861362   -1.83468985943843    7.17551107735974
C         5.17336960650906   -0.71904373591428    5.70394749511690
H         6.03939126909473   -1.36388082954529    5.74189995735128
C         6.01379072384900    1.76269650380319    2.53250763400453
C         6.42819731899088    3.08955445006594    2.47071861921590
H         7.11063866547413    3.45833912746321    3.24413710984680
C         5.99725494639940    3.91680236633388    1.45082544622171
H         6.32750834190567    4.94477198155947    1.40550781911082
C         5.14379952324964    3.41714631179104    0.48040565312332
H         4.80630259827612    4.05567556193780   -0.32292901508444
C         4.72234058480426    2.09800694871792    0.53837212189447
H         4.05448858764684    1.71369180128705   -0.21926050326222
C         5.15257660106347    1.27032493636510    1.56005923507627
H         4.81466127180390    0.24520789286148    1.60257639504966

