43
CSD_code = ZANBUL | q = 0 | S = 0 | Stoichiometry = C13H19BCl2N7V | MND = 6
V         2.67740526367088    2.71978932845927    8.50495397353761
Cl        2.42653348161694    2.74776320915702    6.38535614581815
Cl        3.88492321648446    4.46697994515827    8.72192093086876
B         4.03377183382560   -0.03666309700210    9.70915580347347
N         3.18036582475810    2.18764350900101   10.41805759843632
N         3.76966733408264    1.04724430783634   10.76369240236941
C         4.08050019344161    1.06969710778159   12.06416962415599
C         3.67210102991103    2.28318680643915   12.58308551532282
C         3.11064977239366    2.95214088453983   11.49910405037947
N         4.96690191802486    0.58128985626822    8.67280292196595
N         4.59596117166206    1.70652592288057    8.06013994885556
C         5.55703211489179    2.03888585762489    7.21673973887096
C         6.59019244841128    1.10071378465934    7.27960221678591
C         6.16937856578363    0.18814442080599    8.22289183303063
N         2.68559079344992   -0.25505420872882    9.00785407164086
N         2.00725199610364    0.77925658594913    8.51958188943965
C         0.91563547402761    0.30745604649369    7.93311503884160
C         0.88422051397641   -1.07959948993043    8.04750604140539
C         2.03680379167048   -1.39363262488832    8.74116162152931
N         1.27989318724337    3.39108786537744    8.87971102419777
C         0.13180171164969    4.16330870420959    9.00826009949070
C        -0.14273286642069    4.47767828946449   10.49070313723580
C         0.39548082916039    5.46666994580625    8.22453414797330
C        -1.06856792654411    3.41604863490682    8.39620433065776
H         4.46238384502760   -1.03092061967692   10.18202745209169
H         4.56567269316732    0.23860936206750   12.53534958426904
H         3.76993602753703    2.63084671874330   13.59075738871066
H         2.68392715118835    3.93634144596180   11.45001695451404
H         5.48041362481195    2.92007135949292    6.60464465757929
H         7.50316255319396    1.09340139290069    6.72024998036332
H         6.63959854242364   -0.69965446859562    8.59616934553880
H         0.22097523881044    0.96773044229557    7.44925958373033
H         0.13829954505109   -1.75244725582311    7.67771471675139
H         2.42566555524077   -2.34221324057766    9.05271574906619
H        -1.08082041606600    5.01776436887772   10.58725202231063
H        -0.20150254234227    3.55210162331067   11.06051217518444
H         0.66012148316129    5.09169428021917   10.89162646172256
H        -0.46583054894216    6.12595786933902    8.28988249665999
H         1.27191008205859    5.96528284881531    8.63531443721484
H         0.59539691367192    5.22328932376446    7.18194027232462
H        -1.95534679387426    4.04307832351679    8.43641952682013
H        -0.85044185998052    3.17528347632646    7.35750877685768
H        -1.25528276741401    2.49732115677202    8.94873431200808

