85
CSD_code = ZANDIB | q = 0 | S = 0 | Stoichiometry = C26H48F3NO4OsSSi | MND = 5
Os        3.21569538528476    0.44107190709397    4.30054104386641
S         0.61543661364282    0.94301044231032    5.43866896114007
Si        1.50004394485705   -1.12625984245884    1.83504551385797
F        -1.09046005687459    0.65946099433972    3.38751319297761
F        -1.78042129923456    2.00171319482875    4.92071274362237
F        -1.82238863727095   -0.13016751185232    5.25434063356272
O         1.10182408787908   -0.41835320877284    5.31267114357459
O         1.30458672922168    1.86978174810716    4.55858787345732
O         0.39224590595703    1.40470910641795    6.77354971758366
O         2.39308594478726   -0.21175715806727    2.82344134535122
N         3.61694708213791    0.87250412168037    5.90457421754388
C         3.42213588018950    1.26226874757794    7.16276182503403
C         3.70903141084427    2.61841246780282    7.52047507749104
C         3.31762661292545    3.10092624552670    8.75105202373463
C         2.69304937769818    2.28481793514654    9.67788629577778
C         2.49383317171607    0.95082842702679    9.38082251503375
C         2.85171983601524    0.40963137329545    8.15985470666008
C         0.57362610919102   -0.02968766348489    0.57322276431488
C         0.29624239249239   -2.24194254726291    2.81145267680571
C         2.68119941563975   -2.26089833252611    0.81918361176113
C        -1.11426051885472    0.86371410240109    4.70903462575792
C         4.36596567066867    2.00917257078520    3.40720677618895
C         4.88758569136641   -0.84071155436353    3.86524420150782
C         4.38919470317765    3.53134514982528    6.53582384905166
C         3.32464667135604    4.41959704088705    5.88103201390444
C         5.48578301974194    4.38408676242268    7.17985281922528
C         2.64799087844366   -1.06546445211605    7.94659252928514
C         1.19690756619637   -1.47864597538145    8.20779474872132
C         3.58977963815304   -1.85472517652599    8.86553002011268
C         4.24923668304293    2.30947463451299    1.90968205298907
C         4.69878272516907    1.14214318573181    1.03173877374774
C         5.18068890112201    3.50411720126957    1.63103530292135
C         2.81755141464651    2.71939916616678    1.56294206160708
C         5.03360447731856   -2.15243593098034    4.64340016352980
C         5.62241618065474   -1.86127180527073    6.02565736177030
C         3.69525792646678   -2.89006527502294    4.74205448500059
C         6.02362810289570   -3.05147167913471    3.88322397157521
H         3.50028648733602    4.13534654759530    8.99573537821446
H         2.38123938686850    2.68344525310067   10.63135844481324
H         2.03666138394701    0.31196102033210   10.11932076839830
H        -0.06196800943744    0.69756183272104    1.06750996622790
H         1.25533201421518    0.50812751287662   -0.07913765993692
H        -0.05947969698163   -0.64881946027169   -0.05447004815875
H         0.33747809126797   -2.00658400622635    3.87002729347473
H        -0.72554600247831   -2.09135418191235    2.47808504669663
H         0.53138889947879   -3.29544594445530    2.69167293262885
H         2.08693118717945   -2.93437501253429    0.21037701453597
H         3.31947481067454   -1.69677671272846    0.14563224957325
H         3.32371981504108   -2.87069027587165    1.44717262832775
H         3.94678393294284    2.88026087754840    3.90646191780166
H         5.42825002735302    1.92812277240924    3.66021946743927
H         4.74302650739949   -1.09776173954000    2.81345093784858
H         5.84140628204893   -0.30755136638259    3.94286777969935
H         4.85986791397269    2.90215599897373    5.77659585970788
H         2.86726819062900    5.06648298309877    6.62635757275328
H         3.77351906822656    5.04495451379585    5.11183246217969
H         2.54146195788604    3.80676771347891    5.43882207816804
H         6.16866083926760    3.76080565170369    7.75200784131301
H         6.05175100634948    4.89190753785280    6.40257301702730
H         5.07156588295846    5.14174492752973    7.83907114676646
H         2.88116474493404   -1.29574062814223    6.90730767537071
H         0.96144103317735   -1.45567869432842    9.26914238392584
H         0.52336846042401   -0.80758470423234    7.68402455573448
H         1.03583252775999   -2.48976723073200    7.84216085192448
H         3.52218789432283   -2.91498074007119    8.63603713457409
H         4.62095576920579   -1.53511888914472    8.74035275297065
H         3.31478379897037   -1.71256194703840    9.90790718117690
H         4.02033663758891    0.30477543531486    1.15142511742811
H         4.69815881987820    1.43913611456411   -0.01526604990564
H         5.70454068375377    0.82661188349599    1.29879631163385
H         6.21839910663031    3.23826709912322    1.81795730840200
H         5.08779652103815    3.81021915266647    0.59168686629879
H         4.92323094529397    4.35253540006345    2.25987739811895
H         2.55350774188849    3.64374289002560    2.07145419485176
H         2.70965367392621    2.87138392647755    0.49078741564776
H         2.11669540511111    1.95427315852753    1.88057397864937
H         5.57663354420439   -2.74085790871506    6.66194115620599
H         6.66380305432296   -1.56189758025942    5.93114337031922
H         5.08110932988763   -1.04600901600472    6.49465637966455
H         2.90397868227525   -2.23455679634329    5.09627678703412
H         3.39859791817798   -3.25832814126651    3.76345078884023
H         3.77528431055633   -3.73998720664533    5.41667033650993
H         6.18609044018998   -3.97457334831879    4.43468101072065
H         5.64213702829163   -3.30475844348811    2.89746528888133
H         6.98191231322164   -2.55295864066204    3.76024206946677

