50
CSD_code = ZANDAT | q = 0 | S = 0 | Stoichiometry = C21H22CuF3O3 | MND = 5
Cu        8.40161449948835    2.30808428556083    1.91423076961611
O         8.45197260613327    4.57993157712648    2.18239877928060
O         9.40009870902183    1.63350982222244    3.42223686646654
O         9.66319561671337    2.06507927495900    0.47682658064710
C         6.66894728100907    2.69729239683597    1.11450528906473
C         6.54064023144951    2.45714294933046    2.46788886753828
C         6.22115968061974    3.79501255519637    3.11255938120226
C         4.84937930350739    4.17925033823895    2.58641721727903
C         4.96762151156339    4.40932581019952    1.28619190210653
C         6.42331876069796    4.18621550234929    0.91829456799053
C         7.06244211902930    4.74422537839074    2.21150367700453
C         9.28201447846246    5.27816245235561    3.12952140255029
C        10.70444066857047    4.92668063741565    2.68685549552287
C         9.07967661985730    6.79475262403258    3.03459521387749
C         9.03711181384246    4.78460721099173    4.55596015595496
C        11.34205690360553    0.69030309951142    4.38566109694844
C        10.56173749792112    1.22432834303587    3.16797891762295
C        11.27875447296250    1.19102782866039    1.99013769261447
C        10.80957901624761    1.62196984578752    0.72577518703979
C        11.74892292041200    1.50828599858088   -0.41802326540120
C        11.22334910092906    1.24132861647808   -1.68103959852289
C        12.05618302049668    1.12682034587737   -2.77728638640596
C        13.42313536160175    1.29706989413861   -2.62880733467216
C        13.95107736747271    1.58859160372976   -1.38139995568713
C        13.12269235133938    1.69129587124141   -0.27885995774403
F        11.74689737760270   -0.58019229364272    4.21316070375351
F        12.46077675554985    1.40924704732819    4.60796130607773
F        10.63321403119716    0.72491873915380    5.51273088208061
H         6.48878917847859    1.99517402050284    0.31674421262247
H         6.24373311048599    1.53002225966237    2.93217165632118
H         6.35092989346864    3.84907646972962    4.18813581081954
H         3.96934344433557    4.21805674901527    3.19964642665863
H         4.20903779232296    4.67942025605243    0.57704175348487
H         6.76457881869036    4.60861107893427   -0.02118621895186
H         6.79496554967491    5.79194751155673    2.37468202312907
H        10.85398980844551    3.85322410437129    2.75122080860522
H        11.43567488647315    5.42270648204365    3.31811749633840
H        10.85527710205080    5.23075431757722    1.65433443544491
H         8.13260903011136    7.10391002333108    3.47065056209655
H         9.11101778548901    7.11103190256297    1.99449206672281
H         9.87659088447306    7.29692967318023    3.57564512445764
H         9.02697483533779    3.69654822987929    4.56800439363576
H         8.08961600394730    5.15450072754196    4.94043083400307
H         9.83156537644051    5.13516997388935    5.20943147235676
H        12.27050397793607    0.77156448779754    2.03687247359269
H        10.15564272238291    1.11768818256184   -1.78082298037284
H        11.64059456212124    0.90760052303874   -3.74966381033413
H        14.07605598921472    1.20992602332478   -3.48462112102664
H        15.01462694441797    1.73782524136236   -1.26749454337876
H        13.54267222639083    1.94284400699385    0.68309166997238

