69
CSD_code = ZANFAV | q = 0 | S = 0 | Stoichiometry = C27H39CoP2 | MND = 7
Co        3.20544450700144    1.80589762705681    2.88479867202130
P         5.16673530051268    0.61918937819613    2.74311858691982
P         3.98274077725538    3.76029753348742    3.73146625333571
C         2.10804375173871    0.74304270520522    4.68498946533612
C         1.50875031328086    1.91651912084161    4.25400318712088
C         1.20506048935126    1.80558355686308    2.86344835934400
C         1.63330327762960    0.52277742186246    2.45500836582939
C         2.00299667218243   -0.24867746239421    3.63224589910247
C         2.11757234922203   -1.61706243495171    3.73100430403831
C         2.63193157673659   -2.28914086903863    4.91754011693772
C         2.10390053876130   -3.52440005733558    5.31194206170490
C         2.57078043443492   -4.17398691278408    6.43450645516585
C         3.58735985538662   -3.62885605776961    7.21190205784753
C         4.12387819620682   -2.40859194386676    6.82097847551362
C         3.65725802797434   -1.75187240431810    5.70079546583067
C         4.10484845219952   -4.35200970955579    8.41864342291696
C         1.66753899661851   -2.48006927461130    2.63323906312427
C         0.45006251906872   -2.26207036171826    1.98766639413579
C         0.02948962897401   -3.08857917242924    0.96410785880270
C         0.80197007101989   -4.16573387940840    0.54953904647350
C         2.00702544023471   -4.39830057476742    1.20316518216821
C         2.43043246432955   -3.57768051994640    2.22806085049090
C         0.35873835619905   -5.05365658019246   -0.57407744453974
C         6.38280590666700    0.63721096420933    4.13278362383234
C         6.32066700382992    1.10806582894805    1.39489577012713
C         5.11195809363961   -1.18016887101043    2.39179248342348
C         2.86862365162113    5.20801005770554    3.53817834592540
C         4.27207591864667    3.81453102651470    5.54865113961299
C         5.54727237636322    4.55344194138852    3.16852843752578
C         3.35807719666831    2.48863787997514    1.03344762444276
H         2.33366843845568    0.52061617678334    5.71537404889325
H         1.24183646175795    2.75094941655431    4.88743578289417
H         0.58510572476789    2.48474546063068    2.29906833476166
H         1.41144476287147    0.07817419470824    1.49729109846876
H         1.30447984895532   -3.96454056956636    4.73300161671630
H         2.13677599351904   -5.12263202521900    6.72010877535842
H         4.92345515957003   -1.96873486629934    7.40306336136046
H         4.10649910944017   -0.81554927718142    5.40654365690236
H         4.54315346233643   -3.65621930545816    9.13111352521130
H         4.87585490738883   -5.06719504221914    8.12696925391845
H         3.30637476418688   -4.90393912344224    8.91050544280556
H        -0.18489663168662   -1.45236001058404    2.31723041424876
H        -0.92187073143911   -2.90045908353689    0.48494350563364
H         2.61959840284323   -5.23786018010258    0.90323635469286
H         3.36863514124885   -3.78428434600471    2.72396479291744
H        -0.70769731359365   -4.94529504047175   -0.75805481915067
H         0.57317710041686   -6.09706086919657   -0.34961997458479
H         0.89014869665621   -4.79354294875332   -1.49068552163753
H         7.22366891989505   -0.01849266597996    3.91095579799841
H         5.90873251936964    0.30792538343500    5.05371573545278
H         6.74526426704952    1.65342447773573    4.27703742549629
H         6.57321747604737    2.16145399802446    1.48302756037727
H         5.83009983440198    0.94776934995507    0.43861601661399
H         7.23036114801832    0.51079000748113    1.44274065777117
H         4.47304018567255   -1.34692571928565    1.52665068313274
H         4.68524274491107   -1.70752414140994    3.23979674599458
H         6.11267588318062   -1.56050113764999    2.18978678598751
H         1.89473139315914    4.98050612761919    3.96456480840803
H         2.74198519753243    5.40344919155433    2.47552210442254
H         3.28520244466399    6.08879577191894    4.02593682916272
H         5.05576610868016    3.10480837304107    5.80646160419052
H         3.36253146042602    3.52257203309147    6.06834067054744
H         4.56736739082349    4.81419936897446    5.86546922004485
H         5.48041367667878    4.75365052250220    2.10171940571190
H         6.38550455970766    3.88349690220188    3.34633111760261
H         5.71312125796332    5.48902556427447    3.70129100753831
H         3.28457356982300    1.66156005351426    0.32640562408160
H         4.30593573802633    2.99764143675967    0.85877493296177
H         2.55767878251736    3.19301458544070    0.80639609258409

