74
CSD_code = ZANFUP | q = 0 | S = 0 | Stoichiometry = C37H32Cl2P2Pt | MND = 4
Pt       -0.87858966266691    3.73855731906866    1.75649366751371
Cl       -1.01152021724949    6.30375001921765    3.41319349587519
Cl       -0.25790851504334    1.42701461660066    1.97792393939251
P        -3.03377986741152    2.99559232378195    1.65438354931594
P         1.35400175285869    4.06144218823744    2.07698825755017
C        -1.32874363352414    5.74942815178718    1.74670667625807
C        -3.22962709167625    2.06171009694871    3.19877467753037
C        -2.50052319501606    2.54256366638802    4.28463406313277
C        -2.55275735093901    1.88961559326831    5.49992012684024
C        -3.33248067478460    0.75110387725111    5.63580076545343
C        -4.05460058258488    0.26923556541774    4.55695157800042
C        -4.00538877625311    0.91933075174831    3.33532976409151
C        -3.58814610098339    1.88432815819981    0.33026598355387
C        -4.94346759251415    1.64055492279312    0.12075306135658
C        -5.34006399723071    0.77925994133148   -0.88521748186921
C        -4.39291409002828    0.16227072425549   -1.68777402175798
C        -3.04519499930577    0.40683089288997   -1.48390180696948
C        -2.64158645632382    1.26697223918199   -0.47834580901447
C        -4.39769512384056    4.20119434450642    1.71472043982942
C        -4.66986500931699    4.91356100721356    0.54848664920349
C        -5.65663243117712    5.87956492129160    0.53623876826736
C        -6.37145903550536    6.15143619348595    1.69313808302582
C        -6.09317735197734    5.45789345628324    2.85854711801134
C        -5.10665884057060    4.48650727639817    2.87430783593258
C         2.33225330263492    3.43909440010800    0.68438012069772
C         1.65741147065537    2.95887312271055   -0.43076203861634
C         2.36656214113936    2.50392761966616   -1.52744638022280
C         3.75131690312027    2.53644199487418   -1.51412247606574
C         4.42754629647333    3.03487098666291   -0.41088304095810
C         3.72276369415240    3.49234828370978    0.68698158400447
C         2.09909640699505    5.71319780435051    2.27286718714473
C         2.08487278177998    6.53475027981355    1.14787143670446
C         2.59418183857194    7.81667237252343    1.21273292271630
C         3.12014168224405    8.29116200811378    2.40423853409323
C         3.13883560266586    7.47769112483260    3.52399188241621
C         2.62931314279087    6.19219197070000    3.46313784630202
C         1.87370518575932    3.15633544276051    3.55957896629995
C         2.78353642913841    2.10808647783461    3.54826346081999
C         3.05452345288248    1.42311612662570    4.72011525879572
C         2.41786154544798    1.77227042491105    5.89904092997120
C         1.49573419578816    2.80684172996166    5.90925229303937
C         1.21899227777789    3.49404663876609    4.74325862729011
H        -2.37136456933255    6.01490179450686    1.54928940037916
H        -0.68649275418272    6.36751774325908    1.11073877865233
H        -1.88383534992631    3.43019966003957    4.15557497720704
H        -1.97962350966956    2.25847528486516    6.33767871655744
H        -3.36883605197570    0.23228340562736    6.58260548007237
H        -4.65282326431576   -0.62414598994711    4.66369546354079
H        -4.55412885494143    0.53022292380465    2.48928389049873
H        -5.68285351412678    2.13015000636013    0.74073950868674
H        -6.39152345354964    0.58815533025873   -1.04472508575431
H        -4.70886133871583   -0.50907761243015   -2.47285057539141
H        -2.30732522911659   -0.07413101203872   -2.10888696896595
H        -1.59201937265168    1.45055199317342   -0.29565493499241
H        -4.09742914960270    4.69718799060688   -0.34517856089906
H        -5.86729964050379    6.42584091455133   -0.37155105716350
H        -7.14159318928562    6.90845764907140    1.68560369051626
H        -6.64500313814714    5.67518112623564    3.76134009842378
H        -4.88797360750032    3.94807127157733    3.78576029926798
H         0.57086265486630    2.94568559836817   -0.41853334014200
H         1.84243872419530    2.12561667518564   -2.39282436001028
H         4.30789950313838    2.17861907560650   -2.36799299494048
H         5.50749362684187    3.06822302070454   -0.40942437309349
H         4.24357879926633    3.89705864750826    1.54508438847331
H         1.67445656722834    6.15282379307723    0.22073979892657
H         2.57937864035181    8.44914530667180    0.33693898753685
H         3.51436450667758    9.29516157645335    2.45848934815789
H         3.54982383044655    7.84608711069883    4.45260383188066
H         2.64613877826852    5.56304962313795    4.34131245804114
H         3.25964845207739    1.81246164697258    2.62467730972964
H         3.75927999464779    0.60429843597924    4.70934649526990
H         2.63048641419480    1.22926351183351    6.80843631823788
H         0.98830476626278    3.07189911922311    6.82572838643366
H         0.49066122263115    4.29612732320885    4.73683812983873

