52
CSD_code = ZANGAW | q = 0 | S = 0 | Stoichiometry = C21H24ClN2O3Re | MND = 6
Re       -6.76090800790134    2.41621420474501   -2.99254323115020
Cl       -6.34248612309941    0.82356329890445   -1.27000817977925
O        -4.32839057724650    4.01947749972089   -1.95846514703132
O        -4.96941938382780    0.71562126669074   -4.85094167740641
O        -7.65956348506243    4.45784985003392   -5.13153472616106
N        -8.50113347018858    1.20036084834603   -3.23036586048336
N        -8.11721912792069    3.13931684154744   -1.50439690396080
C        -5.22013538541476    3.45463227094093   -2.40191580508694
C        -5.61767232909256    1.39987016999924   -4.20094777928517
C        -7.30342309200930    3.70311906061818   -4.33995113021028
C        -8.66618845330796    0.25625240489103   -4.15155819280906
C        -9.69797894127265   -0.65804629982323   -4.12531580293427
C       -10.64095689984405   -0.61482887491616   -3.09781925379223
C       -10.46591414059338    0.38043402011109   -2.14788340567285
C        -9.39289403382566    1.26571463474790   -2.22783243027170
C        -9.16081980741221    2.33401446668248   -1.24490210726432
C        -9.95656760408963    2.51299894071056   -0.11544750639333
C        -9.69644862197209    3.53595791574944    0.78450642703211
C        -8.62374633161202    4.37196591356531    0.47327711348372
C        -7.87502761948188    4.13754757883585   -0.66088595162211
C       -11.77654421163721   -1.61756416458825   -3.05690727274569
C       -11.17793322092762   -3.02657191165832   -2.94138987424128
C       -12.58829041517205   -1.49839222378712   -4.35472323550226
C       -12.71976201471375   -1.39095137330330   -1.87277284069349
C       -10.50624443733273    3.76434800714155    2.04503097539833
C       -11.62813044951079    2.73739243928372    2.21816985941963
C       -11.13239358356124    5.16483344315415    1.98167452196596
C        -9.56568158923792    3.66531719368959    3.25444474075449
H        -7.93506366484459    0.23054900882965   -4.94941334690131
H        -9.75273343957252   -1.39917131538717   -4.90563310390889
H       -11.15919407614654    0.47208771056100   -1.33116218784401
H       -10.76972468546531    1.83288012638316    0.06410589560071
H        -8.35325244047483    5.19772307071454    1.11060480829811
H        -7.03711193623090    4.77857977279687   -0.90340063681615
H       -11.97466531856774   -3.76508579248301   -2.89333625769749
H       -10.54709215974922   -3.26131909418363   -3.79417429401870
H       -10.57602256956433   -3.10916084415237   -2.03883414122784
H       -12.98384390697272   -0.49046175253605   -4.46395142121786
H       -11.98125761601257   -1.72373441370299   -5.22696324762160
H       -13.42297683287355   -2.19495013003936   -4.33363880148011
H       -12.19501340378399   -1.49818973733855   -0.92593898925801
H       -13.18183913197484   -0.40691343487439   -1.92049605067859
H       -13.51404710907759   -2.13345739514651   -1.89812585643040
H       -12.16751961263141    2.94543768066479    3.13940305907532
H       -12.34024742124988    2.78879835078903    1.39696258409255
H       -11.22845281185823    1.72799194268127    2.28737262341307
H       -10.37188466450310    5.93849622341438    1.92336926538659
H       -11.77822313772696    5.25318299212293    1.11014457201927
H       -11.73036717484351    5.34275819860271    2.87227331422536
H        -9.08561347209864    2.68934112497020    3.28121252615584
H        -8.79045742306294    4.42557456997165    3.21939177739253
H       -10.12992263344809    3.79739571530253    4.17463258589896

