50
CSD_code = ZANJUT | q = 0 | S = 0 | Stoichiometry = C13H32IrP3S | MND = 6
Ir        2.87315281393548    3.56260347801791    0.64539086924755
P         4.34787524823705    3.56275618014643   -1.23905271586421
P         2.62428987300828    5.86003898348157    0.69846481121853
S         0.85691710945311    3.56281513693810   -0.78633279607716
C         1.81483847191693    3.56255406749547    3.53864465863926
C         1.53152696833450    3.56247290465691    2.23064507745171
C         0.14112325245303    3.56272658709648    1.81622172578513
C        -0.25129006762214    3.56281617290452    0.53316868680299
C         3.57397677420019    3.56265757798972   -2.90227568936173
C         5.56225760426957    4.93268836584033   -1.44750689627549
C         1.28587714513759    6.56885858094789    1.72703609701227
C         4.02429406940414    6.85782145590924    1.34683504579626
C         2.24238865932458    6.72609307230922   -0.87675072956998
H         2.81963628761813    3.56275509836988    3.92282163104488
H         1.02648877619026    3.56278679882175    4.28328866245215
H        -0.61534656666900    3.56277200510338    2.59630111781500
H        -1.29337205960971    3.56281954702890    0.23962808203400
H         4.32572945905997    3.56267760419477   -3.69148616395211
H         2.93605441607291    4.43946960719529   -2.99424753917155
H         6.14902425125750    4.78386853567220   -2.35410791589774
H         5.05731743653543    5.89359848542716   -1.50209208178351
H         6.22502017163697    4.93429223304916   -0.58347616937983
H         1.30343538367873    7.65688297265590    1.65795513242766
H         0.32560283940393    6.19283549956697    1.37997640097520
H         1.42875300143418    6.25500306340281    2.75895790417725
H         3.79804286183049    7.92249249407675    1.29635789968334
H         4.18036743835876    6.56271250440697    2.38259162411782
H         4.93306228141125    6.64629038740362    0.79079245355631
H         2.13975675450454    7.79700899059274   -0.70286167204096
H         3.01873389297619    6.54995320778615   -1.61738050451585
H         1.30515603269048    6.32426544356004   -1.25919399690639
H         4.08494718805643    3.56323385415238    1.62523424047415
P         2.62426677650847    1.26537442353855    0.69847939031775
C         5.56236820363842    2.19291988716515   -1.44740332372252
H         2.93616190413401    2.68576056975553   -2.99419370883378
C         1.28589547735266    0.55661428466858    1.72711882577847
C         4.02427755956100    0.26757898019173    1.34673355209045
C         2.24229164811833    0.39938311536426   -0.87674139541211
H         6.14916360056392    2.34174812188423   -2.35398293730307
H         5.05749677193064    1.23197049652288   -1.50197356993761
H         6.22509307069819    2.19139848747817   -0.58334276187339
H         1.30343086890136   -0.53140825060861    1.65805536399962
H         0.32561002424306    0.93265225962927    1.38010790177472
H         1.42883543687611    0.87048470824464    2.75902855167288
H         3.79798748614640   -0.79708196911561    1.29626410187251
H         4.18043620469553    0.56267757030731    2.38248068887741
H         4.93301459630903    0.47908143866573    0.79062682518679
H         2.13958050147342   -0.67152648177021   -0.70285747164545
H         3.01866095391831    0.57547194543234   -1.61736054577588
H         1.30509114643976    0.80127951644821   -1.25918673698070

