99
CSD_code = ZANMIK | q = 0 | S = 0 | Stoichiometry = C41H54N3Ta | MND = 9
Ta        0.88550920254923    0.18349316366696   10.55798130815003
N         0.95409779476436   -1.15593922974286   11.76607128856216
N         2.79105509417077    0.74413037807046    9.10989838804370
N         1.94662835375373   -3.63219078175537    7.54551545647726
C        -1.55249390250459    0.18427388950842    8.96467999079213
C        -1.46289260824783    0.55924743368824   10.37964864070348
C        -1.35455908786563    2.01906733370429   10.38083642360007
C        -1.23951588999338    2.44815697017778    9.08046185117861
C        -1.36866486919002    1.31346898023982    8.20147848121054
C        -1.94908623594371   -1.18870752538853    8.51362843169000
C        -2.31970433571883   -0.14899858084805   11.40503932469807
C        -1.47524540700090    2.87750497951292   11.60129975211778
C        -1.08347554117111    3.86224319350369    8.61966595030678
C        -1.36379047848474    1.42907597068869    6.71074592089714
C         1.80697701183399    1.96570873970954   11.63534196303569
C         1.12610936112465   -2.14095196477794   12.65850525930776
C         0.68374778055172   -3.45870358135170   12.39266999212762
C         0.89104004123744   -4.45528633770145   13.32956749620009
C         1.52317008099035   -4.18991943958062   14.53122741062959
C         1.95979291718719   -2.90321145069524   14.80170281379720
C         1.77653822091741   -1.88098700124416   13.89111819755495
C        -0.02186845758799   -3.76776803663049   11.10668587025568
C         2.24663233645607   -0.48960442729047   14.17553510478745
C         3.90989616631207    1.43871391124449    8.68396517530082
C         5.13826156527414    1.22579741638452    9.32760981238126
C         6.22034573763252    2.01355851855301    8.96856611739123
C         6.09880385478317    3.00778641401854    8.01483208701420
C         4.87125797532198    3.24139435767252    7.42097123663520
C         3.76511847135420    2.47785291234177    7.75277642148086
C         5.29027455945850    0.16865206913680   10.38303728800274
C         2.42889337565640    2.73830381403329    7.12406967032722
C         2.21078463990044   -0.33924949292952    8.86509241835897
C         2.51487897257481   -1.33192405485683    7.76248302909316
C         2.47986334584171   -2.76411209174473    8.28681995312139
C         1.88895254319608   -4.99962697281961    7.73397476959997
C         0.61539683082810   -5.59293280302950    7.72184547614530
C         0.50388278524637   -6.96646641088665    7.84246890205537
C         1.63071860893413   -7.76501221011670    7.93292403483865
C         2.88207514155971   -7.18323273036215    7.87220823342546
C         3.03511515045896   -5.80780406109308    7.76944213515611
C        -0.60587225801324   -4.73508657822314    7.58686092895869
C         4.41850831189890   -5.23512473155382    7.65295550020976
C         3.88748812015526   -1.12023643521758    7.10183340251023
C         1.41465654555217   -1.13302394306319    6.70848562342909
C         3.12311854433837   -3.02001303325542    9.61820140755168
H        -1.33470581171604   -1.95686603976736    8.98283626149011
H        -1.87425625887698   -1.29246798263048    7.43320619111385
H        -2.98821768663866   -1.37772504362190    8.79126218624599
H        -2.19234712990286   -1.22738296912119   11.33600724828353
H        -3.37306219528320    0.08795783589268   11.23974936772800
H        -2.05526909507661    0.15676391667259   12.41598761790998
H        -0.84901574044580    3.76643477699928   11.52967710806645
H        -1.20031289154786    2.32790105689747   12.50038026365452
H        -2.50893197003534    3.21295665837080   11.71394803195456
H        -0.57898944904026    3.91057904076099    7.65615630977378
H        -0.51437344915833    4.44924963180229    9.34037242785542
H        -2.06155410466346    4.33461868396990    8.50703089258763
H        -0.44474633853538    1.89587778318465    6.35257543082744
H        -2.19719332867249    2.05141888112740    6.38178041731287
H        -1.45818541662968    0.45540175634794    6.23634661469052
H         1.31934318757854    2.19431910432196   12.58083621767570
H         1.66841189341641    2.81981261046089   10.97110468877261
H         2.87411293883925    1.87860113207605   11.82790158369377
H         0.54965882475498   -5.45752343295108   13.11123559931766
H         1.67549179286617   -4.97889836986396   15.25223439290104
H         2.45371148741154   -2.69150519735875   15.73974811269637
H         0.24280081892973   -3.02998221918043   10.34984999687452
H        -1.10193633178503   -3.73886131029482   11.25920578356354
H         0.24370700199287   -4.76297713977719   10.75481235186013
H         1.40180896704727    0.19838474009787   14.14797393235102
H         2.95115466037856   -0.16942024344058   13.40747282681737
H         2.72493268611231   -0.43260692358235   15.14976343623651
H         7.17148544872852    1.84497710587737    9.45273007327464
H         6.95345054587752    3.60992921333501    7.74669420308208
H         4.76483577079645    4.03283775743551    6.69299059516619
H         4.33179978840499   -0.07612964161482   10.84262689753717
H         5.97742796041197    0.50847942413501   11.15533576801736
H         5.70477069145075   -0.74545696961254    9.95507651831067
H         1.63115929724998    2.62569468583760    7.85904268833083
H         2.24001318359091    2.03248870255916    6.31200870270778
H         2.38939823206645    3.74378824830574    6.71093133421938
H        -0.47871223976590   -7.41642923722025    7.85236174578667
H         1.53310086466205   -8.83632202284081    8.02578929878690
H         3.76639323163149   -7.80411544600986    7.90474178489631
H        -0.93300061819207   -4.37136109265535    8.55984174466327
H        -1.42177324797302   -5.30257504215533    7.14476367801285
H        -0.38191988253110   -3.87338175751777    6.96221015645964
H         4.39943164890758   -4.25294679825924    7.18750785302774
H         5.04291054190330   -5.89310979539385    7.05114543698842
H         4.88363672900065   -5.14219474643783    8.63506768427525
H         3.95448967154147   -0.13033983239977    6.65658596488082
H         4.02271549698474   -1.85829381371709    6.31308730833217
H         4.69453868888934   -1.22726315223972    7.82176216668383
H         0.43647791129156   -1.25302356011185    7.16528132854542
H         1.52626448860729   -1.87587078325577    5.92357812538882
H         1.48298835264612   -0.13948869499322    6.27051667120178
H         2.73304239724553   -2.33473413988531   10.37122928762294
H         4.19863943115610   -2.86416192251716    9.54797126050597
H         2.93677818399057   -4.04297396580571    9.93583749185875

