102
CSD_code = ZANQOU | q = 0 | S = 0 | Stoichiometry = C56H38N4OP2Pt | MND = 4
Pt        4.66851419627260    0.17998390081433    1.57354363280858
P         4.88586292903372    1.20677836297892   -0.50085234294320
P         4.99308065705877    2.14658947635152    2.88250045943153
O         3.48758791935048   -3.39987278727656   -1.34164273020947
N         1.77044285990318   -3.19980109966074    4.41872980482228
N         1.31241662940289   -0.21157349175550    1.54705822249231
N         3.40147706760733    0.25534629906618    5.34518801126173
N         6.21373999831068   -2.50636599869632    3.69729245734066
C         3.32269268468821   -4.91268211094049    2.01038230251978
C         3.05847080687778   -6.22565528390133    1.67286109567076
C         2.90410219309567   -6.58596886698889    0.34521339017764
C         3.06401752473781   -5.63415816224490   -0.64529372731275
C         5.57765629253526   -3.30261472370673   -2.48919711239587
C         6.87021532305684   -2.82176854027145   -2.60498935299356
C         7.38951935886224   -1.98785651901481   -1.62809717184907
C         6.60803454752953   -1.62347053718537   -0.55058911505096
C         4.49598332972411   -1.67314980614675    0.72018642327286
C         3.67795411944917   -2.52587040515238    1.36804892913413
C         3.43368307154823   -3.92596782042868    1.03126759297808
C         3.33320070251185   -4.31690654556089   -0.31034234080484
C         5.29991110314111   -2.08777857170037   -0.41897076758609
C         4.79329242346459   -2.93780892620136   -1.40729503276087
C         3.01873800591752   -1.86957031920900    2.58849053778034
C         4.16153914156231   -1.01204800013880    3.23953073577605
C         2.06171056983552   -0.93900536579481    2.02115932041721
C         2.33686466417485   -2.66960834891524    3.57828690621943
C         3.74551607208923   -0.32074740959400    4.41241074472102
C         5.30660732197664   -1.83199121141397    3.49422535670589
C         3.64789687027288    3.05211307909730    3.70682576363409
C         3.90991831437849    4.24136318021392    4.38430705731668
C         2.88572982918718    4.91151654130534    5.02520866510544
C         1.59489817713022    4.40720070192906    4.99309685443429
C         1.32884649913957    3.23174305831754    4.31315839182994
C         2.35102127183499    2.55634694378859    3.67116237910820
C         5.96002909664540    3.55187852399782    2.21792291327048
C         5.28412696630990    4.58542395869720    1.57471979164914
C         5.98558576400405    5.62509161059931    0.99530611316892
C         7.36926067727201    5.64910364896600    1.05277715546324
C         8.04642641136379    4.63630022208869    1.70950139915066
C         7.34853592907997    3.59114057079163    2.28713177329244
C         6.08883778802023    1.58707250641199    4.22761124845755
C         7.04634295820583    0.64154960780985    3.86492578176524
C         7.92549332888382    0.13463852807657    4.80203851572417
C         7.84439700870088    0.56377640160186    6.11643411046013
C         6.88505938436369    1.49227995101684    6.48566504032192
C         6.00725147423260    2.00725144114022    5.54828187917969
C         4.18890594182287    0.28712337268193   -1.91341314655796
C         2.85740769433194   -0.10858910534811   -1.80339481407625
C         2.26558947197672   -0.84948425428035   -2.80701950039520
C         2.99482168922358   -1.20083085041594   -3.93094545727334
C         4.32210695494640   -0.82402577336073   -4.03645525788171
C         4.92469874893427   -0.09072075764361   -3.02958228708773
C         6.49467702835101    1.82943642277022   -1.07109741400512
C         7.56342637352885    1.73086944091984   -0.18919057476770
C         8.81566313646724    2.19897265433353   -0.53929386984422
C         9.00837679901494    2.77815750811606   -1.78157122427871
C         7.94962449870942    2.87825985033711   -2.67025262499186
C         6.69726649464661    2.40432153469613   -2.32396414313050
C         3.79755237321398    2.67407203768733   -0.49957226091419
C         4.03338004086547    3.85403386480362   -1.19433123507000
C         3.11836523485372    4.89042909637731   -1.12405668377196
C         1.97202098853217    4.76752339174625   -0.35626444532172
C         1.73881769221510    3.59953767892949    0.35103523647577
C         2.64834353545265    2.56157347545823    0.27844386980536
H         3.47008049017410   -4.65559397036223    3.04765527233061
H         2.97298541266403   -6.96732702830916    2.45199579981919
H         2.67888058131834   -7.60749185678899    0.07897218352533
H         2.97438145166130   -5.89267005604187   -1.68941457705045
H         5.15642569282713   -3.95413282185926   -3.23952532935539
H         7.47228701605343   -3.10315027103243   -3.45595932056591
H         8.40186204901052   -1.61971489766425   -1.70863932160256
H         7.01234039051359   -0.99610115679205    0.23504347969434
H         4.91401515095777    4.64405054512228    4.40046053880990
H         3.09549262167599    5.83013446862425    5.55395847131737
H         0.79850397916385    4.93322388706666    5.49838053607776
H         0.32546511258147    2.83433585558378    4.28467567619793
H         2.13508944325736    1.63708858256350    3.14683256053784
H         4.20377314543154    4.58180271372656    1.54785388007662
H         5.44803973875141    6.42046344151402    0.50045251067189
H         7.91707715871960    6.46083546798217    0.59788942704904
H         9.12423398537800    4.66090723926967    1.77529555179583
H         7.88732182687825    2.81165500654306    2.80736051288872
H         7.08329321368883    0.28217216924692    2.83683594570080
H         8.65269114874068   -0.60828690752866    4.51221965687088
H         8.51928992500382    0.16111601870083    6.85670040746931
H         6.81050606004568    1.81060804310938    7.51482733525161
H         5.24336075737063    2.70733020918896    5.85042598864355
H         2.28792865289937    0.14929210152724   -0.92109569541813
H         1.23706986971615   -1.16094963796464   -2.70717671538250
H         2.53312072634461   -1.78088670600441   -4.71577050138397
H         4.90110594802014   -1.11241479320248   -4.90161977703033
H         5.97329185916077    0.15572601721526   -3.10464112577507
H         7.39802848878791    1.27886984752527    0.78071168619666
H         9.63937946747171    2.11114591902932    0.15324826583786
H         9.98359717008853    3.14708606706090   -2.06225106273070
H         8.10199551192882    3.32454119151624   -3.64227594960692
H         5.88352601973119    2.46933209403615   -3.03244410997331
H         4.93610612092696    3.98344595510466   -1.77058192132579
H         3.30693422182080    5.80386910243691   -1.66940761309740
H         1.26695583012598    5.58376086182178   -0.30308456588521
H         0.85548254842649    3.49732481640811    0.96296912573217
H         2.46684725289051    1.64669523066089    0.83066754377974

