42
CSD_code = ZANQUC | q = 0 | S = 0 | Stoichiometry = C12H27AuIP | MND = 2
Au        8.08755469187206    0.34038771081089    3.43572960535534
I         9.59591390649211   -1.63759289340018    4.07815984507772
P         6.74881852738214    2.09090723242366    2.86598333101529
C         5.37819681121418    2.30685724522123    4.18147060102174
C         5.94219946232104    1.75760650674648    1.16456014549538
C         7.78926764362146    3.69215491348886    2.76917458584764
C         4.61116781528906    3.62749545936981    4.15168864652111
H         5.23684561030664    4.46768176440617    4.44060334255786
H         3.79118234058946    3.57090057891356    4.86748955308084
H         4.18473161872025    3.82752021373508    3.17300980877205
C         4.39204949978201    1.14664024002118    4.01048440810636
H         4.92282841468086    0.19823200490441    3.93044246191329
H         3.74784941022074    1.27941999308726    3.14672285395938
H         3.74755824313662    1.08898990712547    4.88712837744596
C         6.01567680846973    2.10647719288925    5.56361708401252
H         6.65368596657446    1.22176879443997    5.56948370483213
H         5.22932596051689    1.95066793816558    6.30104265889328
H         6.60217851085003    2.95553624975987    5.89397571332968
C         5.51649988908006    0.28303399478941    1.12575132872049
H         6.31197483881494   -0.35872141308492    1.50686472910999
H         5.32522735783059   -0.00752993327595    0.09358504230470
H         4.61291149357264    0.08202172720313    1.68896971293899
C         4.75919813030878    2.64784002721814    0.78868096176004
H         3.89143612873191    2.45604865810903    1.41394400463447
H         4.47322669362925    2.43183827854502   -0.24066207515964
H         5.00939039116099    3.70298942454373    0.84986312985124
C         7.03731655056172    1.89932282529821    0.10229517673152
H         7.93065467047353    1.34704600951394    0.39322992599376
H         7.29392796347155    2.93724440877368   -0.08646030818594
H         6.68333403082403    1.47901028222896   -0.83858651383276
C         9.11786024931632    3.34992400707919    2.08011038415343
H         9.54250976018638    2.43431674579578    2.49393144221206
H         9.83095873441253    4.15380669809166    2.25835303574309
H         9.02745479557278    3.23284414620695    1.00671298437157
C         8.15792972869780    4.08615773154571    4.20326665582340
H         7.31818331118030    4.51842170034505    4.73877304160418
H         8.94645220642866    4.83781448317247    4.17923698381336
H         8.54035976143247    3.22619547776426    4.75283611930584
C         7.13686756367020    4.88431703433912    2.07190398383092
H         6.17415294510950    5.13301775616651    2.50893985980879
H         7.00482339323163    4.71054663103307    1.00743681593066
H         7.78761817026121    5.75174224648835    2.18195685129878

