55
CSD_code = ZANXOE | q = 0 | S = 0 | Stoichiometry = C19H29O2P4Ta | MND = 11
C        15.45343603588161    3.52485761235605    3.83390801619722
C        13.06356710484203    3.37198809644382    2.90065899536030
C        14.88903227646435   -0.24506646232723    3.75326959512350
C        13.69490397718350   -0.05481384568968    4.47498227632860
C        12.61674569665877   -0.06152861986445    3.53102019596814
H        11.58003327615236    0.00930735075689    3.79938407425887
C        13.08153248676364   -0.20394372250036    2.24332517055062
C        14.52740114359521   -0.22340451149722    2.33251678108062
H        15.09049514195956   -0.79780437733456    1.60804578793243
C        16.32654111127107   -0.57687159917170    4.14768932338372
C        17.15345195448626   -1.01537364574405    2.92426933084369
H        17.19765363723553   -0.23559272037991    2.16265137574779
H        16.75946914307714   -1.92864026314685    2.48444914909420
H        18.17312728159380   -1.21732601353592    3.24661444728696
C        17.07412564851793    0.62867399736223    4.74167293228032
H        18.01110602577057    0.29712610622584    5.18523062354715
H        16.49955501131449    1.14144203283566    5.50155908282375
H        17.31572487040743    1.34601972259270    3.95271542735683
C        16.34404908708258   -1.76773194375427    5.11809750855141
H        17.36628627775741   -2.11046886834193    5.26520363409126
H        15.76223532062220   -2.58924612305500    4.70554736961810
H        15.93530989095547   -1.51153929849112    6.08745137205137
C        13.33303495324022    0.07441749575862    5.94771947784854
C        12.09204993436570    0.97625071670961    6.09752773888372
H        11.96055632257621    1.24441270691461    7.14344846898189
H        11.18326664426179    0.47659252898312    5.77616566671267
H        12.20716431989570    1.89175839507144    5.52261235924104
C        12.97020805872847   -1.32581572820510    6.47190317788561
H        13.82898920522833   -1.99017465535019    6.45480403769853
H        12.18881088564226   -1.76752392015966    5.85779491815222
H        12.60777559265342   -1.25465270279634    7.49513435386044
C        14.40865526435310    0.70004574985703    6.83771379590243
H        14.02478048069168    0.78629776959114    7.85292789436436
H        14.64933821372407    1.70060406354920    6.48689064585226
H        15.31236828416413    0.10514219012537    6.88644012059732
C        12.26022821540782   -0.37748433308613    0.98869681958022
C        11.56888652526052   -1.74844635302435    1.06354715698442
H        10.98423637812303   -1.92567116981475    0.16387189860818
H        10.90547062768681   -1.79220231715817    1.92294219154899
H        12.30704300035553   -2.54149407980039    1.16039401531438
C        13.13487855653503   -0.32500787220988   -0.26917713075415
H        13.84420115051711   -1.14933045532158   -0.29087539071332
H        13.68415537462018    0.61866965007990   -0.32857242632635
H        12.50536151022532   -0.40303554304430   -1.15286443195401
C        11.19721136077101    0.72336995536644    0.89138197624923
H        11.66889020931590    1.69995292032618    0.77314375566875
H        10.58014751955355    0.75211810361468    1.78420261789914
H        10.55326469579134    0.54839542943506    0.03222948950860
O        15.44105281001179    3.51869566897986    5.01973626147698
O        11.96267993133929    3.02410739800590    3.20240721505943
P        15.81979673271170    4.91975864696133    2.67076067831842
P        13.58724057919419    5.09941569828960    2.40676431421703
P        13.69198274792531    3.88555025430442    0.58175561223284
P        15.89438895787135    3.71234330450914    0.79725152724580
Ta       14.69870255766644    2.06747757979876    2.30555872437784

