71
CSD_code = ZAPCEY | q = 0 | S = 0 | Stoichiometry = C36H32N2Zr | MND = 12
C         4.41211851049254    2.01203734859923   10.90823865210193
C         5.73028141024302    2.40152169767019   11.23045523564044
C         5.96292970547147    3.67003645192700   10.64607439955580
C         4.78178240418019    4.06295464068579    9.97942024552104
C         3.82697948392597    3.04244801887520   10.14074305982221
C         3.11026221613197    0.66780947436955    8.26533855786574
C         2.18243716212112   -0.21140697060873    8.85692183494604
C         0.82502932683853    0.03356898473953    8.79340680440974
C         0.32554784980027    1.14777542352932    8.14172854641121
C         1.21837659459451    2.02401364019074    7.54349426150428
C         2.57686635965842    1.79587899055704    7.60314922868471
C         4.97301318806429   -0.75600082642165    8.81059730331246
C         4.46654464740172   -1.95615330199677    8.03954799839375
C         4.31750105822834   -1.86450048086724    6.66177355019699
C         3.89882571140733   -2.95929245949038    5.92823398226191
C         3.63499390609199   -4.16074082446608    6.56443500966077
C         3.78727545304705   -4.26037697081219    7.93675958217634
C         4.20011803302848   -3.16331435276754    8.67182194503158
N         4.47302139320353    0.49982749366309    8.27048287321560
Zr        5.74970479096227    2.02849404640606    8.75947773033129
H         3.89196711720003    1.14474554709265   11.29741784401549
H         6.38855580201613    1.88333978933108   11.91896856401585
H         6.81833207500467    4.31117506880449   10.83064058551867
H         4.59324613989512    5.03880801410538    9.54854818475457
H         2.78460653580303    3.10023132586440    9.85787061671055
H         2.51926075749146   -1.09849162511517    9.36904912793082
H         0.14512713478475   -0.66282496308707    9.26367003433525
H        -0.73710470769414    1.32849458158063    8.09441860863125
H         0.84827862233782    2.89602610248309    7.02169635120010
H         3.25644194346616    2.48548736731429    7.11270679057236
H         4.52470143562098   -0.91970664380745    6.17621573750187
H         3.78031488281860   -2.87699083835776    4.85767183516905
H         3.30975963520382   -5.01695858150937    5.99215932805009
H         3.58321903069259   -5.19526245896335    8.43766536343492
H         4.31790468634849   -3.24490480252249    9.74350734242641
H         4.71620746763441   -0.86658928624828    9.88572424315648
C         7.08729114133469    2.01203935490066    6.61071699829014
C         5.76912812225017    2.40152344000329    6.28850059648453
C         5.53647936028650    3.67003776802525    6.87288209217888
C         6.71762654506523    4.06295600144849    7.53953645012273
C         7.67242978410680    3.04244980158840    7.37821327393447
N         7.02638781762814    0.49982651338112    9.24847166183686
C         6.52639612505818   -0.75600080802371    8.70835486799452
H         7.60744275702829    1.14474798158100    6.22153718917678
H         5.11085400137094    1.88334161084157    5.59998692313400
H         4.68107670775699    4.31117615956194    6.68831648253109
H         6.90616237778493    5.03880923314383    7.97040901727524
H         8.71480268357104    3.10023330920332    7.66108587274867
C         8.38914691610793    0.66780909211902    9.25361534161945
C         7.03286420807764   -1.95615503917591    9.47940178790816
H         6.78320191756003   -0.86658726084477    7.63322773893274
C         9.31697207486762   -0.21140658496588    8.66203094517369
C         8.92254270029647    1.79587843974635    9.91580499380294
C         7.18190642301948   -1.86450562041699   10.85717657444824
C         7.29929077956939   -3.16331476291623    8.84712521745203
C        10.67437979603033    0.03357008856358    8.72554508764050
H         8.98014852185291   -1.09849111325720    8.14990342331567
C        10.28103241839911    2.02401391322020    9.97545889996417
H         8.24296720011918    2.48548615022316   10.40624855517297
C         7.60057983789483   -2.95929971237390   11.59071411470809
H         6.97470610864844   -0.91971277215070   11.34273637710744
C         7.71213150219998   -4.26037940932540    9.58218551214091
H         7.18150518159605   -3.24490265509797    7.77543952946212
C        11.17386115735629    1.14777661809820    9.37722334153124
H        11.35428209720626   -0.66282313358480    8.25528094287498
H        10.65113021256082    2.89602634170439   10.49725698748998
C         7.86441137659085   -4.16074677674836   10.95451054139241
H         7.71908910771961   -2.87700074285296   12.66127663503262
H         7.91618784843120   -5.19526392585081    9.08127784455060
H        12.23651367911047    1.32849628648976    9.42453235356850
H         8.18964374802481   -5.01696640700597   11.52678447053400

