71
CSD_code = ZAPCAU | q = 0 | S = 0 | Stoichiometry = C36H32N2Zr | MND = 12
C        12.30401553816641   13.49087442248972    9.67588231785994
C        13.00167077740515   14.10362686549821   10.74003602266409
C        13.06808764763064   13.18062128520178   11.80240328024990
C        12.41029481875854   11.99975817660559   11.40029003330353
C        11.94179372883228   12.18755766171904   10.08566691747449
C         9.14384617370075   14.88808639033024    9.58420878542452
C         8.37860438037056   14.99461477404239   10.76437470758491
C         8.07252575387774   13.69192435377420   11.21015015021455
C         8.63574219153989   12.77625085799520   10.28944152818401
C         9.27629490685253   13.52030788465584    9.27858510600000
C         9.85495062355224   12.09092286750569   13.96828253274949
C        10.31879450596785   11.86697817419700   15.36302359572875
C        11.54669422862064   12.41397133317409   15.73181296078146
C        12.03097681934389   12.25546547923996   17.01404659627170
C        11.29171682867857   11.54896725693065   17.94988408309187
C        10.07671431061603   10.99129218384205   17.58935137522154
C         9.59335685774881   11.13973169404391   16.30143479028655
C        11.53769417973910   15.95072591414243   13.38358274653343
C        12.00087231553217   17.39208830309951   13.51639511839765
C        13.30940882660476   17.74262265613610   13.21052518439200
C        13.71227065714723   19.06581881696803   13.25208649220698
C        12.80924804935092   20.05644781947229   13.59810461489488
C        11.50127487242584   19.71654555402600   13.89971690892758
C        11.09886919995728   18.39376856846572   13.85671961222606
C         8.72550206885518   11.23694555089627   13.47091046920697
C         8.97888942778464   10.25865528481377   12.51480522574763
C         7.94486350100437    9.48654773652859   12.01281743824883
C         6.64625620068196    9.69897853922251   12.44480609005849
C         6.38418430641696   10.68342621902684   13.38329977721257
C         7.41777999917883   11.44605470189480   13.89868813651121
C         9.26337705224162   15.32799099725191   14.36573979144770
C        10.61472182103623   15.59570397391217   14.54986432585621
C        11.13515992133041   15.55638788250521   15.83906485131845
C        10.33268332796233   15.23124820051138   16.91689486423154
C         8.99253322303648   14.94399777470785   16.72253521636754
C         8.46020388979204   15.00207432645671   15.44662832962615
N        10.40412921744439   12.94245153681744   13.22935056826131
N        10.96607636258535   15.75636728096118   12.06408706228789
Zr       10.58027447632223   13.85493386704498   11.45618940110033
H        12.21238553100894   13.89457643045143    8.67354595954842
H        13.49849552777457   15.06569820084921   10.69795759578718
H        13.62782416722439   13.30167191955974   12.72119539377642
H        12.39674527920714   11.07130710888877   11.95830027823681
H        11.50692796922779   11.41853728901037    9.45654800060915
H         9.44333346767204   15.71396548070973    8.94993654709853
H         7.97700691689125   15.91595601805254   11.17053271248821
H         7.39980873618964   13.43836450407881   12.02089803990393
H         8.45559180888330   11.70806238812660   10.27420419821379
H         9.67947483421256   13.11612121044077    8.35870967498069
H        12.09804039166440   12.96084522562660   14.97877550909960
H        12.98472068696793   12.68158953633371   17.28983699549500
H        11.66499678958679   11.42661061241182   18.95632371410788
H         9.50383185127680   10.43265708272185   18.31574687224478
H         8.64980966247561   10.68980162857177   16.02966412100555
H        14.01610134902712   16.97092436633352   12.93901554372572
H        14.73409838916362   19.32518681583419   13.01518286744442
H        13.12325446685583   21.08934165976749   13.63292198455613
H        10.79201455790254   20.48525247491942   14.17090472970298
H        10.07806893381229   18.13153243227344   14.09860283845505
H         9.99658288487901   10.09697457420939   12.18011166815599
H         8.15104205884791    8.71841795875222   11.28098332374946
H         5.83949027698123    9.09919712911849   12.05026787579405
H         5.37063115840594   10.85388197001370   13.71694985666885
H         7.21682913350637   12.21512520461427   14.63194135884196
H         8.83357349374147   15.38040050989068   13.36968064432157
H        12.18097989953731   15.78180034867540   15.99529687267640
H        10.75323325370693   15.19485499117345   17.91105453107677
H         8.36665128335810   14.68068208325776   17.56239914487996
H         7.40950483846198   14.79948056622920   15.29073977373845
H        10.31840566777674   16.53339314653385   11.88737837990346
H        12.42289174560243   15.29445596708274   13.46190598573425

