83
CSD_code = ZAPJEF | q = 1 | S = 0 | Stoichiometry = C38H41ClP2Rh(1+) | MND = 8
Rh        3.13784130794507    3.76620628341427    5.56112011789363
Cl        1.50578439399891    4.52748870591701    4.09059601781439
P         3.04947287832518    1.98780637408635    4.10138143100233
P         4.65133278514216    5.10067662121722    4.49805758577024
C         2.43554818466411    2.50362911728490    7.24026189454599
C         3.85355130641293    2.76675052611814    7.37552392277305
C         4.02207513240320    4.17949962035182    7.53827949761496
C         2.72009886080055    4.79094122344162    7.49873736806881
C         1.74715411792599    3.74769846230051    7.34650897283683
C         1.79612387983873    1.14791265174066    7.28163005769133
C         4.88550541213113    1.72411415751797    7.66808140650432
C         5.29645748822443    4.87534519484428    7.91190204850055
C         2.38593530150442    6.17842360156034    7.94738391431427
C         0.27326094469300    3.97583086358510    7.39775537624491
C         2.04064553081097    0.23907340509381    6.06700161619726
C         1.70241575939187    0.89024251239831    4.72654800975852
C         5.84318550052588    5.89105402191131    6.89595308919343
C         6.17351632548570    5.28833539822676    5.53044993539337
C         4.50810626161201    0.89410080479814    4.08053507653052
C         4.43326105963916   -0.40516117357904    3.58582283563511
C         5.56605131925157   -1.19733660302656    3.55764181388130
C         6.77931637523416   -0.70102167729625    4.00983962360645
C         6.86138653646356    0.59523020003425    4.49021656707791
C         5.72737185587411    1.38652053594581    4.52542850982031
C         2.66574173074286    2.07907383777263    2.32835401326605
C         1.35457105953705    2.24959964290979    1.89101451936139
C         1.07369104120811    2.26103335254856    0.53760194230959
C         2.09132353630250    2.09641782713811   -0.38827842271522
C         3.39617758982106    1.92858404368118    0.04331295797401
C         3.68717110300274    1.92804143795047    1.39512917459233
C         5.23453914665711    4.68572045916920    2.83117417306180
C         6.47643411456087    4.12193065753109    2.56144288228527
C         6.85860320974380    3.89893248570384    1.24970826594744
C         6.01097068452987    4.23653374809383    0.20775478472482
C         4.76495464318137    4.78259631668497    0.47478030946221
C         4.37309854427777    4.99983902330066    1.78108555014307
C         4.21103290028384    6.85280619353378    4.26031003412117
C         5.10710151298969    7.67336657727498    3.57652863863338
C         4.82927856926399    9.01720147401678    3.41917053255036
C         3.66028460497570    9.55310627876955    3.93856280194727
C         2.76377512676594    8.73858992452385    4.60802700310862
C         3.03684422991922    7.39075805867709    4.76860233269988
H         0.71834916866916    1.27252527174324    7.40214277787225
H         2.16760851585519    0.62993410138778    8.17130026018691
H         4.81944367333960    1.46049577562330    8.72587180313116
H         4.72944681608263    0.82027899998028    7.08625118872137
H         5.89290404832218    2.08193731129080    7.47272933401129
H         6.06949449310175    4.12866362406919    8.10360225934701
H         5.11505832994516    5.40763355014563    8.85059760500619
H         2.25343671550766    6.16540147543304    9.03176225859714
H         3.17205032267655    6.89004711393176    7.71214300956486
H         1.45504536900600    6.52458115747473    7.50472135784862
H        -0.00267295854783    4.31379688643606    8.39746299851136
H        -0.02609088271988    4.74498401574236    6.68634743758079
H        -0.28535659059508    3.07222989438833    7.16985442651930
H         1.41334653425074   -0.64546038034178    6.19590721371197
H         3.07844586796428   -0.10302362728092    6.04963154926214
H         1.53512398637716    0.12108958983691    3.96718194287892
H         0.78986755426383    1.48902123539177    4.80779284082309
H         6.75435650166448    6.31584788923459    7.32250255557671
H         5.13419097889873    6.71173576885627    6.75833941319955
H         6.84148725201509    5.96173629105612    4.98627915331726
H         6.67782838197877    4.32714365448970    5.65410649571004
H         3.49608027346124   -0.79307581504060    3.21437423354333
H         5.50426247929114   -2.20543248571380    3.17720306699641
H         7.65970878941298   -1.32418249085868    3.98312203337276
H         7.80772351958503    0.98409582925956    4.83596513547452
H         5.76529960883955    2.40351656952234    4.89675547455828
H         0.55604032790611    2.38495831913093    2.60385275454655
H         0.05576495097775    2.39509763722916    0.20486391865149
H         1.86682461049309    2.09831699888952   -1.44386873946374
H         4.19300048850017    1.79733189698444   -0.67280532846379
H         4.70892377316354    1.80478737423583    1.72475557506144
H         7.15416818250094    3.86928195043005    3.36322929440653
H         7.82715759065931    3.46953660758728    1.04164813775402
H         6.32263646229603    4.07520475750872   -0.81278563532832
H         4.10053680354914    5.04173945947520   -0.33500812986297
H         3.40191239951170    5.42194713067344    2.00090144379218
H         6.01222093043211    7.25629248431842    3.15603113250086
H         5.52432925822100    9.64882836564499    2.88713851442631
H         3.44721509517298   10.60338126798391    3.81240607709803
H         1.84731726033225    9.15089763046703    5.00210488263201
H         2.32612125161348    6.74768474623031    5.26495009480465

