83
CSD_code = ZAPJIJ | q = 1 | S = 0 | Stoichiometry = C38H41ClP2Rh(1+) | MND = 8
Rh       -0.00574090874994    4.79176115340162    4.57277655150779
P         0.18556337761098    2.84329453291982    3.38924041742340
P         2.15287343358349    4.88932314394457    5.34289890583346
Cl        0.81882233481624    5.77956103908980    2.63850915043023
C        -1.70480973856899    4.02121265278454    5.69688236480595
C        -0.83528588678096    4.75529455183673    6.56761847738223
C        -0.88838761515385    6.14997076230266    6.17760276690475
C        -1.74572791121284    6.25229669051779    5.04731948518034
C        -2.24098917856344    4.94820978048466    4.72721929062768
C        -2.19673021782877    2.62053448014009    5.90083077831821
C        -0.19377383658102    4.25075980127145    7.82490039854789
C        -0.47651732264864    7.30120838616661    7.04224840532967
C        -2.16067582961542    7.51641075874455    4.37020295903003
C        -3.43916096840071    4.70595425315417    3.86354644708625
C        -1.95064443240625    1.63185969009052    4.75284471337870
C        -0.47580968464428    1.45052487828641    4.40660344098890
C         1.28768977156498    4.60904002903482    8.01295493843184
C         2.21688276190352    4.00349808541765    6.96128479511125
C        -0.80566193235744    2.72065524169265    1.86551033951989
C        -1.51916087630338    3.80057307135083    1.36277714975490
C        -2.26142983211482    3.66339693144230    0.20213593825307
C        -2.29275023341117    2.44982286939445   -0.46250020898975
C        -1.56848445747409    1.37324302339826    0.02711056550883
C        -0.82376796265291    1.50494110981331    1.18306603018695
C         1.77187489006204    2.20717562667547    2.77669004369969
C         2.41723664286496    1.11115676299360    3.33985769962849
C         3.55932511739598    0.60385399168848    2.74630642304579
C         4.07475154518127    1.19401921235020    1.60505636241734
C         3.45035595647811    2.30317232186661    1.05757502122611
C         2.30198424730378    2.80717385047841    1.63630984064713
C         3.60994110771137    4.28505975305465    4.44173922970752
C         4.31446062777391    3.14464744401792    4.81027505669770
C         5.48480345850864    2.81523773838408    4.14977994218796
C         5.95050941015749    3.60623200546198    3.11381256156834
C         5.23855073544524    4.73087089669416    2.72895137407236
C         4.07567614213910    5.07300287537844    3.39055198160039
C         2.75782146437036    6.56871504672414    5.71700258486690
C         3.88252349007401    6.73289975372861    6.52263425737632
C         4.38056764255361    7.99926987527430    6.76491791901449
C         3.77401110684393    9.10926622633734    6.19731198543220
C         2.66785204710908    8.94963231344794    5.38034711742318
C         2.15911076117969    7.68435339114121    5.14078698405694
H        -3.27739659583715    2.67962689958063    6.06560797015090
H        -1.75212849387409    2.20783419983451    6.80883987462867
H        -0.29250154165385    3.16422082439476    7.87854372998686
H        -0.75009959070230    4.66966339243614    8.67079094276997
H        -0.69112756044798    7.06015370972004    8.08277940025798
H         0.57975666032171    7.55011710114625    6.96293237779750
H        -1.04523095504880    8.18827164849105    6.77439063789730
H        -3.15267066331901    7.80570660610138    4.72155648160578
H        -1.46671413941554    8.32566589210438    4.58264508230720
H        -2.20915144460613    7.38729186326580    3.29043067844811
H        -4.32528793710358    4.70123414298028    4.50214525683087
H        -3.55964961279869    5.49797771722508    3.12945868443446
H        -3.39840330245841    3.75575657845958    3.33895591662135
H        -2.49202508214609    1.94033960868835    3.85605279304611
H        -2.36030953831502    0.66795461320633    5.06267502275224
H         0.11903616780442    1.36500935981937    5.32078317261546
H        -0.35191963067285    0.53466187520655    3.82396160622712
H         1.58736529451814    4.23176842164206    8.99353622066690
H         1.41838380235771    5.69200787693639    8.02765560724831
H         3.24579013961501    4.03817833435896    7.32600177777667
H         1.95304956045731    2.95631943196806    6.78055392107162
H        -1.47182391408179    4.75490081984994    1.86670477608996
H        -2.81080983635225    4.50748747084053   -0.18623512735830
H        -2.87094236448231    2.34302528029729   -1.36724158531111
H        -1.57946848508235    0.43021669994551   -0.49784686733499
H        -0.24267441562626    0.66867729360352    1.54647896045074
H         2.03278586119330    0.64231549757648    4.23319580309102
H         4.04544702147864   -0.25900437604795    3.17610630490475
H         4.96201634186065    0.78964348734641    1.14302316342711
H         3.85288853300283    2.76951774963094    0.17173107844023
H         1.80406868968841    3.66500276118609    1.20772559083404
H         3.96242328717858    2.51210256669748    5.61108142999187
H         6.03676285322130    1.93748345128781    4.45020290951606
H         6.86744654426761    3.34652160782396    2.60774450455063
H         5.59516198639970    5.34803882316671    1.91880088232655
H         3.52104142721139    5.95277473100113    3.09846496802136
H         4.37899941561806    5.87372849837222    6.94977289065627
H         5.25074296043076    8.12008569010260    7.39192610292687
H         4.17010887056540   10.09502919235623    6.38575236103756
H         2.20090868126227    9.81006285213484    4.92566816572500
H         1.30257175812047    7.55824380385895    4.49175604744849

