63
CSD_code = ZAPQIT | q = 1 | S = 0 | Stoichiometry = C30H22CoN8S2(1+) | MND = 6
Co       14.89437788234926    9.51578721704663   12.01696812239480
C        12.74842021820609    7.84155501017821   12.11247012571408
N        13.30072732915037    8.83927833130760   12.85182104922191
S        17.77941955930130    8.94957101282142    8.88792443713226
C        11.57146269200353    7.20123383383892   12.52155503039202
H        11.16202865375153    6.41840662201427   11.90413608053318
C        13.82294125751263   12.00825029583539   11.78066807459781
N        13.89186586975947   10.85315024236205   11.06786602430479
S        17.44352968237594    8.70457990826860   15.37410980260458
C        10.97076210696552    7.57956163368508   13.70121142050670
H        10.06671954745526    7.09806440300276   14.03908104384520
N        15.37706806710902    8.07264058367050    9.76680372422724
N        14.56433139599343    8.20256176618243   10.77519097131804
C        13.13033170119003   13.12309074088961   11.29073151987014
H        13.09347375378496   14.01872420991304   11.88920044112015
N        15.13288091574285   10.85379631364505   13.25336343247522
C        17.90205874723724   11.48351743536351   11.98338196318614
C        11.55605260981117    8.59322816395834   14.45540261337069
H        11.12506806320314    8.91442742360936   15.38869912793637
N        16.44496494690723    9.79683818368318   10.91449095716264
C        12.52078647310444   13.05258075688806   10.05819952667026
H        11.98580109468733   13.89937654473664    9.65812674655703
N        15.82824604058631   10.60322834346426   14.32479763525640
C        12.71205227780383    9.19179293337034   13.99196717241268
H        13.17804911077860    9.97881636412932   14.56827479618380
C        16.55581174302032    6.34277529305815   12.26672353492441
C        12.61264683145093   11.86763830778571    9.33279655387271
H        12.15907453831895   11.77156063121444    8.36068253381686
N        16.02389718903625    8.55172119480562   13.23750314274839
C        17.55169389684936   13.62941485726469   12.99835313300595
H        17.08285861398741   14.60181665277922   12.98761543988753
C        15.42159312278161    5.54123295449113   12.22318123429224
H        14.66058754143950    5.65120122272811   12.98309481030001
C        13.46902450777768    7.51384741924220   10.93128891530497
H        13.16307908410741    6.75156954931890   10.23034862376261
C        17.55089422854619    6.18670468312910   11.30873790924542
H        18.43757204110441    6.80267558314443   11.35577390739597
C        13.30187886335144   10.80041389058528    9.87626941881332
H        13.38241824914489    9.87507634141203    9.32318110541678
C        18.41042266993828   13.28364031943085   14.02801482107044
H        18.60504547275787   13.98326738598398   14.82584172289521
C        16.39936673162391    8.91700754920444    9.90814324762514
C        17.39956480539972    5.25225702821752   10.30060727784173
H        18.16987933533138    5.14051573067137    9.55343950899676
C        14.51490877651537   11.97777975377719   13.02261566025268
H        14.55487774324697   12.80898861843382   13.71075269654312
C        19.02713243286678   12.04394316612901   14.02981929013047
H        19.70257162965630   11.77514843030841   14.82719110463993
C        18.45212353880584   10.18054916375653    9.90351552534863
H        19.41271457653262   10.60186420943188    9.69116202090508
C        16.26361525137317    4.46200371674929   10.25269001647157
H        16.14770014338239    3.73238765707506    9.46646781891858
C        16.32980941089741    9.36991282744412   14.25035454238826
C        18.78031149058608   11.14660238450833   13.00701941809604
H        19.26244362530613   10.17944499493191   12.99888437574961
C        17.61487700594302   10.50361964825382   10.92080027309266
C        15.28070182199573    4.60130781895237   11.21800154039641
H        14.40193234187820    3.97476304560549   11.19088897549052
C        17.51564348710743    7.27622209649195   14.39722095701756
H        18.13568355068212    6.45056211069674   14.67854875654050
C        16.70530880370701    7.36942339485833   13.31341183876651
C        17.29322537237739   12.73247955046840   11.97733766387634
H        16.62868953440895   12.99870254379672   11.16727884516664

