37
CSD_code = ZAPWUL | q = 0 | S = 0 | Stoichiometry = C12H16Br2Cl2FeN4 | MND = 4
Fe        1.74540710864781    1.48455806223433    7.99270178653047
Br       -1.89920360168030    3.62183066542703    3.50872125870343
Br        7.04389073724811    3.95778605701046    6.10353374697023
Cl        2.30354522379965    0.69883769476799    6.22775222841853
Cl        1.17213705146482    1.95063791968184    9.85200398808703
N         0.42996269120803    3.20868307895019    6.78804696371618
N         0.87252621075454    4.38467029032150    6.31555711201594
N         3.36566644787359    3.33346942255437    7.66271696854850
N         3.15831225787253    4.47432887960123    6.98603327282098
C        -1.21422124534725    1.49197348067995    6.17842418154525
H        -0.92403289371981    0.77796111573937    5.40839604016376
H        -2.29284486209187    1.63116472486083    6.12916787310654
H        -0.93671518326929    1.09124433156260    7.15546103597507
C        -0.51081970886152    2.77844706636044    5.96793843362597
C        -0.67917343582887    3.72051661360483    4.93722089931663
C         0.22039730788936    4.74065394665509    5.18054284003279
C         0.46239132166344    5.98685958629048    4.41408641273176
H         0.31765726613412    6.86901005364046    5.03743305287263
H        -0.23851357587819    6.03417001617973    3.58422944977586
H         1.47332505877316    6.00730625934188    4.00759075089653
C         5.20151748443108    1.75960418205821    8.08035614482314
H         4.47317461242186    1.32530280615289    8.76811525359790
H         6.12282082512852    1.98712518877068    8.61383664558594
H         5.42651423839172    1.03426077227903    7.29928590973809
C         4.62676458693974    2.98690037552173    7.48224364191431
C         5.24826558711504    3.94734370616160    6.66410883925028
C         4.28593673151801    4.88978696627603    6.35634586130207
C         4.39839333082686    6.11676904378269    5.53122627024645
H         3.76411435221486    6.05360263645805    4.64721462884216
H         5.42867075282868    6.22953777661430    5.20260787090925
H         4.11958546695735    7.00354750926815    6.10005665438558
C         1.87456142908153    5.13858733683179    7.03696376337126
H         1.98680546054909    6.09931488207208    6.52496832047639
C         1.44121095628370    5.33988900762083    8.48600909475148
H         0.48836204553573    5.86058871068217    8.51757955395372
H         2.18693696964783    5.92467089734084    9.01698508605106
H         1.33527099347678    4.37165893664374    8.97093816494678

