72
CSD_code = ZAPXIA | q = 0 | S = 0 | Stoichiometry = C26H39NO5W | MND = 6
W        11.63420812092267    6.99711831233485    3.64765070935002
O        12.29561483572123    5.92353241830229    2.50405287387660
O        10.84283598427943    6.22349983692656    4.92830493555794
O        10.30531474787456    7.79346538428654    2.54434287415255
O        13.19931404914804    7.77166596650813    4.33364540793393
O        12.61701605423400    8.74989853685387    1.87794718573788
N        10.84543990534313    9.14141720698342    4.93338063422048
C         9.03153016873892    7.95309293147693    2.91737296483509
C         7.99842644297869    7.08517245256779    2.50821415228073
C         6.70558248394691    7.41337460075522    2.89569482194466
H         5.88619104311192    6.77417422345078    2.60961972234881
C         6.39921390889318    8.54403568295862    3.64286100269583
C         7.43109491668628    9.37730929297792    4.04727412084446
H         7.21740121291648   10.25444812266623    4.64270627901941
C         8.73483730383532    9.09265171921535    3.68600902965037
C         9.90895981608860    9.93524777181930    4.11310486561454
H        10.45235191829488   10.28812861556764    3.22477243589653
H         9.55531693173559   10.81308528017610    4.68040512040102
C        12.00613596355627    9.97541376023336    5.30768019503173
H        12.50937512646454   10.28657446331775    4.38091749277153
H        11.66853499930888   10.87755180554242    5.84588155930279
C        12.96681312724531    9.19665725673542    6.16847014937545
C        13.28576822901201    9.56674291492688    7.46152121862499
H        12.86204929419481   10.46811291474380    7.88303686537185
C        14.14786763915036    8.78658656859991    8.21753228144193
C        14.65654394680959    7.62020747949047    7.66026211842825
H        15.30896086904473    7.02230930079642    8.27558583650804
C        14.36296776354295    7.20462905747681    6.36780253707791
C        13.50241451614872    8.02314612625642    5.60676292234035
C        10.14993558776806    8.72866354148640    6.15833420671309
H         9.29318952985789    8.10853430316106    5.89882754953495
H         9.80728987870149    9.60641467553429    6.72652881945153
H        10.82060832987084    8.13620881500137    6.77895049144056
C         8.31672265840463    5.80269152389094    1.74367395308456
C         8.89480686675067    4.79008235495878    2.74566544479947
H         9.82882773609092    5.17769607622906    3.19852965429681
H         9.12492757568732    3.85593789648195    2.23729564882984
H         8.18022753615586    4.59008463931652    3.54207476159545
C         9.35570988205132    6.04535542874156    0.63462836874935
H         9.13115026026195    6.95990698188986    0.08788836518726
H         9.34253925216948    5.21395408898785   -0.06766008827000
H        10.36423027068524    6.10761809941082    1.05969227319015
C         7.06260815838646    5.19725240242435    1.09810184890011
H         6.35045283298675    4.86400859112078    1.84819541732366
H         7.34390467144853    4.32868216633520    0.50694874715206
H         6.57875076003816    5.91648313436113    0.44092291560656
C         4.98190632661795    8.83996851962522    4.03728116521353
H         4.28168971694594    8.35779312027139    3.35982604281495
H         4.79505305503032    9.91177485737476    4.03121359125769
H         4.78656931446646    8.47120792045455    5.04488860928471
C        14.52148164336257    9.20223004014343    9.61021877920103
H        15.24985132349894   10.01318149556906    9.57929913647061
H        14.95959220227699    8.37299659979806   10.15948534189116
H        13.64830020911453    9.55929956645106   10.15290726329342
C        14.86988324444003    5.88039467771701    5.80261984431280
C        16.00491098868402    5.29098054536259    6.65074645462875
H        16.83285537607867    5.99170015212002    6.73198950230395
H        16.37213806215389    4.38185766043053    6.17989180344498
H        15.66110055531211    5.02700097487423    7.64734327389759
C        15.38414034115849    6.04385982885568    4.36253687587554
H        14.54518997780132    6.12391681650479    3.66393775619698
H        15.97265705415670    5.17243011377298    4.08195222477291
H        16.01462148691844    6.92694389499990    4.27539017046326
C        13.69536567371473    4.88801457641171    5.79565665616107
H        13.30436376498433    4.75132338273032    6.80247156018432
H        14.02759887491832    3.92409585507190    5.41521196674465
H        12.87553320435322    5.25219199559748    5.14402758817041
C        13.91458147893876    8.31674532321954    1.46763178885784
H        14.61907660940444    8.67241546174324    2.21889618512931
H        14.16651770569301    8.75017297800794    0.49407892382726
H        13.94997761951774    7.22358515796698    1.42035919380365
H        11.98078108391403    8.40229376163937    1.23232761159318

