92
CSD_code = ZAQBOI | q = 0 | S = 0 | Stoichiometry = C40H43ClCrO7 | MND = 6
Cr       -0.11124958743444    1.27443975014981   26.05401168275698
Cl       -0.77111367949663   -4.57858976176483   26.59145719807053
O        -2.48884991671967    3.17171688212634   25.51870550381809
O        -5.10474958137992   -1.30164791453888   22.85382183155666
O         1.41410321724571    3.55463502283993   24.81155739688804
O         0.01826448803364    2.32017811049002   28.86899884951210
O         2.28356134142400   -0.13978993397736   27.20966407747955
O         0.86017812308138   -0.39041057174643   23.75234828146069
O        -1.93397154620454   -0.91727154248111   27.04290346785126
C        -1.66117554185745    2.23696776335336   25.13952132010535
C        -2.02343072986797    1.91227652820800   23.71031355083707
C        -2.98803540481423    0.70427233697211   23.74491339532398
C        -3.12549472874798    0.05865566238556   22.34376556074117
C        -3.75159323781180   -1.36777094608605   22.44947948446158
C        -3.65805997841936   -2.10883497736636   21.10200716340059
C        -2.99930829462385   -2.19754246265514   23.47975845550775
C        -3.68188590771525   -2.82690281792523   24.51274468643997
C        -3.00726069598446   -3.56602911105669   25.46774894353430
C        -1.63053040085874   -3.68404236766298   25.38823930253131
C        -0.93309657753072   -3.09248577318109   24.34781326393604
C        -1.62036583360067   -2.36088506955396   23.39769094697304
C        -3.87069072532415    0.94820420270635   21.35004521071088
C        -4.29776745923331    1.07552302736361   24.39667081434532
C        -4.78733456758003    0.28700496538389   25.43208452003244
C        -5.97899570569072    0.59494655259262   26.06242334931637
C        -6.70006372835276    1.71309568274196   25.67917526771218
C        -6.21297187579155    2.51789764932920   24.66453667358579
C        -5.02388491718321    2.20299130953910   24.02975721865604
C        -2.57749731227699    3.64881083194286   26.85823222792407
C        -3.14933158906174    5.07369391749393   26.84796859986197
C        -3.29850229924039    5.52427343416175   28.30621481700657
C        -4.21229435677214    4.58280429993709   29.08656973748946
C        -3.66204067491720    3.15855374541043   29.08467300440816
C        -3.49224570377895    2.70325749569391   27.63840598927228
C        -2.31871679959643    6.05336105061820   25.96810084337038
C        -0.85478988445480    6.09752203661663   26.41677149009594
C        -2.87798595998142    7.48421912316832   26.08965762693710
C        -2.45768061166216    5.66413899052009   24.50012914652705
C        -3.72144258617868    5.63708695731986   23.91390574128308
C        -3.88911307079799    5.35132463620152   22.57170140521879
C        -2.79010202202621    5.08690286895133   21.77206070379221
C        -1.52800818794067    5.11526788470720   22.33661126347279
C        -1.36447165096947    5.40342634881188   23.68173668252431
C        -4.58171567040963    2.20318907327191   29.83788656276199
C         0.86952711952310    2.68371649352464   25.33027002953769
C        -0.15949747604399    2.03615939954804   27.76501867810562
C         1.36724665588467    0.40229835804909   26.77431514682759
C         0.35438738667891    0.27378119122978   24.54498772955283
C        -1.24226906581527   -0.08318903579503   26.66162823095099
H        -5.59795733659944   -0.83155943471195   22.17357741631983
H        -1.13471595221069    1.64767537082636   23.13688908211564
H        -2.51274271780379    2.77036181160093   23.24779030735107
H        -2.51231788749937   -0.05449115786611   24.37727218638336
H        -2.10762566266877   -0.07620925276921   21.96552855554819
H        -4.29319231634615   -1.63955837981549   20.35371139584558
H        -3.99766385966824   -3.13291287315016   21.24009553501737
H        -2.63590451243172   -2.12733601720398   20.73702616434510
H        -4.75360121628665   -2.72529838559407   24.56588385200003
H        -3.54550981468980   -4.04099433064062   26.27281529876823
H         0.13829044924970   -3.19934219601636   24.28290669334110
H        -1.06013064260897   -1.91047609560002   22.59327430022427
H        -3.38500835139184    1.91872555755067   21.28982736062136
H        -4.90474927588825    1.10331894678901   21.64977896349123
H        -3.85311793391433    0.51118173138901   20.35462807603371
H        -4.22917700014680   -0.58137382620223   25.74615310805995
H        -6.34146012767745   -0.03530622697290   26.86109065199160
H        -7.62997299934778    1.95889890845782   26.17148573694562
H        -6.76081495047986    3.39973917538621   24.36313772044274
H        -4.66404866413726    2.86093206456193   23.25447556326390
H        -1.58072683160808    3.64685241906154   27.31340500125857
H        -4.15220238989054    5.00957943357210   26.41470933261621
H        -3.71729090949463    6.52893325914299   28.34241075374365
H        -2.32103891394812    5.54453490208900   28.79055076019264
H        -4.30885742216787    4.94113568463192   30.11317030462961
H        -5.20835046216603    4.58251684139119   28.63772185163874
H        -2.68034648641086    3.15892864135076   29.57054460936749
H        -4.46568153751196    2.67117763231639   27.14429061116464
H        -3.06589419991311    1.69703721681264   27.60288188750167
H        -0.31920562609714    6.86022647657374   25.85608369123576
H        -0.35093514860111    5.14507406187665   26.27334619692837
H        -0.79421315971558    6.36001134875257   27.46974906095888
H        -3.96116636097103    7.49807062791559   26.00544884466296
H        -2.46873517130508    8.10158131982996   25.29239789270210
H        -2.59619232103224    7.93284338861694   27.03838217431787
H        -4.59956154177625    5.84787859789058   24.50558567247693
H        -4.88269898501162    5.34330525648607   22.14567578134557
H        -2.91704491444868    4.86660552240918   20.72189796145670
H        -0.65829313811905    4.91368647542271   21.72831441767227
H        -0.36247027096785    5.41696213317710   24.07655963542938
H        -4.16775972872073    1.19803534014092   29.83607176310050
H        -4.70337599085724    2.52407890643419   30.86960139805100
H        -5.56212050447362    2.17136782654423   29.36754935497194

