52
CSD_code = ZAQDAZ | q = 1 | S = 0 | Stoichiometry = C25H24AuNP(1+) | MND = 2
Au        7.84628364015696   15.77725423386625    9.42347854591410
P         5.75198792310551   15.33263460082724    8.70409550066118
N         9.84193897939207   15.97159196647317   10.29937448894886
H         9.73271949164987   16.53463085791964   11.13988088559845
H        10.52739342235837   16.44698215815991    9.71740802166013
C         9.21356232806989   13.82990952679890   11.25978489556819
C         8.57009492383665   12.87008829491259   10.48468356447532
H         8.93545553626354   12.64763697752220    9.49254542106108
C         7.47843074012155   12.18159585973528   10.98465609285290
H         6.99302035239731   11.43256918364615   10.37796601451029
C         7.01464168839692   12.45261587353765   12.26108725166123
H         6.16173492545749   11.91821960316785   12.65018617349097
C         7.65540266309860   13.40061303001973   13.04269826451069
H         7.30513070137359   13.60402542562261   14.04306432587529
C         8.75076693474695   14.08493374367973   12.54571619325512
H         9.25318716067969   14.81464295836728   13.16461033040158
C        10.35117624915604   14.63216832702646   10.68797413439222
H        11.16595407670829   14.72337761902058   11.41265999633621
H        10.73344695077774   14.14424167931880    9.78992872914020
C         5.53081680736229   13.56354118522369    8.38811414029648
C         6.44910707028770   12.96564372945272    7.52700388737927
H         7.22922214521120   13.57181537341882    7.08240015136193
C         6.35151981310126   11.61784884529976    7.24277016670795
H         7.05799149749621   11.15379390394058    6.57151247748920
C         5.34411864583831   10.86122271402590    7.82437777335223
H         5.26989920600318    9.80712155622833    7.60559186284506
C         4.43462613542184   11.45400496545545    8.68478196242495
H         3.65171587218740   10.86266043028647    9.13473455831644
C         4.52267688023774   12.80601540517593    8.97145449229648
H         3.81320356968349   13.26926810014085    9.64236180524307
C         5.24321322991186   16.14298311117712    7.17065447584322
C         5.81647633046696   17.36828633192744    6.84376239475419
H         6.56569853942746   17.79550704497196    7.49917804898070
C         5.42534760608554   18.02423142957064    5.69119812661912
H         5.86681766897289   18.97532521921714    5.43591802774638
C         4.46960827525900   17.45599388463223    4.86319226041628
H         4.16828579298508   17.96659260855412    3.96171969572565
C         3.90189743172812   16.23277350919979    5.18568249727367
H         3.15992206457848   15.79317478448963    4.53684234365603
C         4.28403924258083   15.57117515412143    6.33829770080238
H         3.84690430416760   14.61581479610119    6.59516272907946
C         4.50177877243702   15.75406300948337    9.94143706224014
C         4.76368196126254   15.36421318782551   11.25433355418818
H         5.68341945195188   14.83591331457832   11.47846802716268
C         3.84761759964000   15.64431250555469   12.24918874596666
H         4.04420897402834   15.33732295405455   13.26509090352991
C         2.67858481366043   16.32537828794841   11.94096366076417
H         1.96609530174653   16.54867951145738   12.71988800750852
C         2.42501938234473   16.72354440447364   10.63872726355614
H         1.51689646206590   17.25707947818270   10.40358308002847
C         3.33345682656194   16.44056121931319    9.63264292341437
H         3.13850363750853   16.75180612493748    8.61606636269838

