52
CSD_code = ZAQFUS | q = 0 | S = 0 | Stoichiometry = C12H24CoN9O6 | MND = 6
Co        3.98163555906512    5.14183386328706    3.47467734092262
N         3.84477430159639    3.32827687548125    4.04899359697089
C         4.41465670271344    2.29001073913443    3.51337142843230
N         5.28660928519764    2.26845149099523    2.51465311735996
C         5.64198882208825    3.38719098024116    1.89772081810224
N         5.19752927840372    4.58944023332649    2.11343681684396
O         4.09046451540780    1.09564534042202    4.05851148372602
C         4.69968212788686   -0.05419059998206    3.50357612225792
O         6.55969030023097    3.26801849280731    0.91157483613094
C         7.05971982269361    1.97128512619270    0.64818919566615
N         5.45354783273177    5.42790482404047    4.65258015070616
C         6.14174148492012    6.52092296996095    4.79873176028676
N         5.92650369639079    7.69745906356611    4.22624799569712
C         4.94454690372857    7.85816650258751    3.34972090960994
N         4.12469165046688    6.95498098343043    2.90063930622403
O         7.18638365021529    6.44752784196465    5.65438630278219
C         7.95049858799110    7.62308877858233    5.84244138166797
O         4.78577450197600    9.10117748007642    2.84145518901963
C         5.66874379627076   10.10528789336604    3.30343557500950
N         2.50530585057578    4.86137865090210    2.30044691148441
C         1.24344961733146    5.00002864872584    2.58004470550327
N         0.70810924666960    5.47136371282843    3.69789714018183
C         1.47160688914903    5.81096281735596    4.72742875641276
N         2.76153738872167    5.69069723393389    4.83352317787906
O         0.38170701232191    4.64354238512794    1.60091188068936
C        -0.99906593630575    4.78797987318260    1.87236226333608
O         0.83788336572766    6.31933914483411    5.80832688504271
C        -0.56746904933067    6.45840696490734    5.72656933655135
H         3.21655778688285    3.06725124344634    4.80374246358054
H         5.63532797807901    5.27023644958015    1.49921315311998
H         5.78574217359527   -0.00028014148813    3.59821147923877
H         4.44388632385569   -0.15611134529758    2.44743953355244
H         4.31057007987864   -0.89768704355542    4.07093798748926
H         6.25135892729472    1.29502500417099    0.36478153866698
H         7.56496487727427    1.56577141848677    1.52657888672907
H         7.76373667147988    2.08714963125387   -0.17383154576440
H         5.83154392512118    4.66592019330193    5.20842851524669
H         3.46557017875235    7.34159858779092    2.23097134292382
H         7.32700923916531    8.43251854597392    6.22621872352120
H         8.40364759599419    7.94437503689093    4.90287841069686
H         8.72147950633983    7.36215861343988    6.56508880443493
H         5.37986056217186   11.01590504982179    2.78176698281151
H         6.70367325260346    9.84635953635408    3.07283881783683
H         5.57229276544616   10.23864945025393    4.38235929151582
H         2.64645260002103    4.48089412395650    1.36889832975542
H         3.09920089019345    6.02238952952469    5.73264804901117
H        -1.51344310710494    4.46190502925695    0.97027386687318
H        -1.24285386367500    5.82818410898190    2.09505918810777
H        -1.29295345516807    4.16891997504171    2.72190548459637
H        -0.84291917708952    7.12866265648970    4.91034362855293
H        -0.87917009128733    6.87672767971714    6.68188097816623
H        -1.04318284466170    5.49009835532872    5.56141170483935

