120
CSD_code = ZAQJUW | q = 0 | S = 0 | Stoichiometry = C41H74NiO2P2 | MND = 4
Ni        0.96969322440946   22.09830899377718   10.08587909631294
P         0.21791713487617   20.51655361389013    8.58010469062671
P         1.58349336897707   21.41953882393926   12.19424902214829
O         3.08601375336454   23.49912472204726    9.42801484397128
O         2.99257239051884   25.06724659028836   11.05153468962862
C         0.48931685676150   23.67161270806479    8.92625002439647
C         0.96591668419360   24.18363579458990   10.13053936483433
C         2.41167017451205   24.31987271796013   10.29220030382703
C         0.10087316069016   25.05658542493887   11.00617793826298
C         4.47353609773761   23.74109028384816    9.30232057495486
C        -0.11791886386731   18.65861773140804    8.65247138759737
C         1.10770696153946   17.74607255078367    8.60634164951428
C         0.66740937446417   16.28342826697060    8.54285416371455
C        -0.16499887297756   15.92231148391103    9.76790501458797
C        -1.37512904394080   16.84413694504378    9.86504764653743
C        -0.93573614165974   18.30565955456649    9.89040897863905
C         1.19434248178250   20.50220858646117    6.96866224332182
C         2.65934688148949   20.67768384885721    7.37901068787212
C         3.59961460156593   20.62969015816170    6.18048936866843
C         3.20441144214044   21.68546545079335    5.15476158111658
C         1.75736668392308   21.47234976408956    4.72482911238060
C         0.81676938965456   21.55365472816481    5.92710774814903
C        -1.47375773410859   21.13854267751943    8.04870328077976
C        -2.27392503752936   21.62296795639798    9.25927118105748
C        -3.46567659273543   22.45418754977952    8.79599001480496
C        -4.35646263677780   21.62007487362801    7.87825378810072
C        -3.55913836290229   21.07887980673471    6.69423598900233
C        -2.36225051419334   20.25678675936093    7.17582011632090
C         1.99060903170418   22.75394347442719   13.46040964532696
C         2.94421508180527   22.43450600495892   14.61386485015460
C         3.27939153567860   23.72538424166358   15.36375427018436
C         2.01985889888188   24.39229885613331   15.90596105584788
C         1.04785231571177   24.67456746338854   14.76546239966628
C         0.71696351699672   23.37639604709806   14.03457832443010
C         0.41208739553592   20.22010250531135   13.03426114839539
C         0.69654796975922   19.79135924454433   14.46988565327968
C        -0.26608902525762   18.67231749952571   14.86833142465753
C        -1.71349442096144   19.13723717930020   14.73544850734070
C        -2.00105879987185   19.58389171642911   13.30460057484010
C        -1.03499416737762   20.69115233043392   12.89233389917315
C         3.17162818048798   20.42778411832208   12.21818924818473
C         3.02021672762570   19.15057862692588   11.39977218142928
C         4.34264006548809   18.39908661011135   11.26880285802277
C         5.41605374380484   19.28127481666958   10.64263191086966
C         5.58264735207825   20.55239789428746   11.46683764651491
C         4.25101915240743   21.28752591375283   11.56429058874516
H        -0.53739441654618   23.89142225926233    8.65624689798350
H         1.17419080176594   23.57954946521613    8.09087403073207
H        -0.12613210375382   25.98070151631816   10.47025716297460
H         0.63205922839955   25.32257307401835   11.91428681256063
H        -0.84163242507482   24.57378885364190   11.25653164484102
H         4.90994634531675   22.87512525370138    8.80857002116893
H         4.93034559378949   23.89363577259147   10.28209580789809
H         4.63827031976762   24.63692507987528    8.69612168347704
H        -0.71309088842514   18.44435522449933    7.75800805426639
H         1.71043735316406   17.88598917841446    9.50113066983892
H         1.73107796618216   17.96217678181137    7.73864739811490
H         1.54720215896478   15.63824743439348    8.48708647072076
H         0.07457562979309   16.11714865283695    7.63981835363550
H         0.44819651684519   16.03139322580857   10.66573478782195
H        -0.48933279289913   14.88110966085979    9.70912900001214
H        -1.95003753880792   16.61341859749644   10.76537791937700
H        -2.02686800137535   16.67572190157437    9.00373739318653
H        -1.81479608270702   18.94508474065029    9.96247203302654
H        -0.32042541182897   18.48799558850182   10.77186836089401
H         1.06182824686299   19.52021003419380    6.49985471741255
H         2.93514849849088   19.89722432015670    8.09276330816155
H         2.75521379987299   21.63837563938965    7.89201918604585
H         3.54995975921291   19.64029800456849    5.71693655153297
H         4.62981075768532   20.79066036239799    6.50744961736965
H         3.86513283675365   21.63375717284864    4.28652195188475
H         3.30918583021967   22.67839823434282    5.59793833835694
H         1.66195863234337   20.49113711301996    4.25226423722847
H         1.47170070944039   22.22587999606523    3.98709247801886
H         0.88474859020223   22.55287811925285    6.35586459060828
H        -0.20631799247463   21.39836230107520    5.58158581818450
H        -1.22293417455643   22.03271410054817    7.46700319597199
H        -1.61664465119610   22.21177167939322    9.91247784753912
H        -2.64661754463604   20.77651053242941    9.83863224152770
H        -3.11349431684796   23.33611447291829    8.25540447396271
H        -4.04097649788441   22.79925635120436    9.65801596072231
H        -5.19136727333614   22.22445008330808    7.51714088048093
H        -4.77193660753831   20.78305777916473    8.44481593467535
H        -3.20490939365062   21.91388212802951    6.08456000523739
H        -4.20459900492160   20.45949817102069    6.06691975459352
H        -2.73407634814523   19.40446640448237    7.74672820131718
H        -1.81141093855406   19.87775508806677    6.31200590060598
H         2.47492593743798   23.52732770696402   12.84978690637957
H         3.87658203953409   22.00069895193016   14.25409712296174
H         2.48772488040355   21.72748673083344   15.30716932894227
H         3.78250238799797   24.41432181213191   14.68129166463616
H         3.96667145771132   23.50394304129406   16.18427379363398
H         2.28127341280861   25.32177881551045   16.41632901135423
H         1.54358501660806   23.73314689534290   16.63699374760321
H         1.50710433519983   25.38103243111191   14.07069161599282
H         0.13298094134716   25.12898349971258   15.15400028288214
H         0.25639824972265   22.69109135425353   14.74828501765997
H         0.00183884626493   23.56327890570040   13.23318300787129
H         0.50210833481681   19.32528479011728   12.40618639133934
H         0.55300224521498   20.62805771506799   15.15329937525261
H         1.72477870896398   19.43888882495949   14.56974335864793
H        -0.06774424840121   18.36374290316965   15.89756386059853
H        -0.10446626708611   17.80440751594664   14.22371153819429
H        -1.88863178745182   19.97218766779299   15.41818329976292
H        -2.39111708002211   18.32842314476596   15.01800993850699
H        -3.03046159030405   19.94115342890235   13.22651551757080
H        -1.89255392321645   18.72931676391073   12.63373916930741
H        -1.20319543322286   20.97944522402859   11.85065466157160
H        -1.21760120817208   21.56436696627908   13.51747562156815
H         3.44773373217182   20.17204474380282   13.24558441555154
H         2.65524990159611   19.44510636733798   10.41065857528944
H         2.28797906955737   18.48302649799191   11.85779964717933
H         4.19626103598571   17.50166849838001   10.66202119842540
H         4.67336547432452   18.07851666957368   12.26038910886729
H         5.11929287952310   19.54664813952668    9.62506132280846
H         6.36190814352604   18.73789129076054   10.58603015389806
H         6.33285658342731   21.20112653612197   11.00846421882519
H         5.93443859308094   20.29327062670111   12.46914008276579
H         4.38365990837130   22.22292235675134   12.10994289366096
H         3.89788283585322   21.52499992488477   10.55858376826910

