42
CSD_code = ZAQLAE | q = 0 | S = 0 | Stoichiometry = C21H17AuNPS | MND = 2
Au       -0.60615993644839   -1.44374829085184   10.85265117424365
P         0.27050324854744   -0.73309421396603    8.88404272023159
S        -3.16891168329299   -2.13070925707869   12.79747108582084
N        -3.12100830471258   -2.70175746487383   14.33532221835132
C        -1.44598896675008   -2.07066564490114   12.57297468010704
C        -0.89995353102518   -2.51517167758067   13.75087632513648
C        -1.87937858338198   -2.85643297409917   14.70455163337646
C         2.06882091120643   -0.50500791385902    8.86933507130428
C         2.68521218806233    0.72906603515263    8.70108138390348
C         4.06419619481137    0.82132511487678    8.77970807207955
C         4.82700408534636   -0.30631388572623    9.03314865596004
C         4.21252851646406   -1.53574909446987    9.21980465009372
C         2.83724880965733   -1.63486976020022    9.14787229821079
C        -0.03346474794272   -1.84337952628239    7.47944577701075
C         0.90224837740266   -2.11625257382376    6.48749273089922
C         0.56721018802569   -2.96330759273680    5.44611932349346
C        -0.69293447006131   -3.53629987062290    5.38861443857879
C        -1.62583435990869   -3.26761318544192    6.37786613265549
C        -1.29676553681047   -2.42627709173363    7.42352182878243
C        -0.37578701365915    0.84903825434411    8.26977016582786
C        -0.98693555358066    1.70286267818671    9.18165622011226
C        -1.48262611282544    2.92364058171112    8.75991241107007
C        -1.37488687448311    3.29024061846098    7.42851557729958
C        -0.77164579292394    2.43728098127863    6.51668325801108
C        -0.27183973834786    1.21720157381277    6.93123641032973
H         0.15946935525982   -2.59541381988022   13.92895603401243
H        -1.68018421681298   -3.22717572109256   15.69721649398961
H         2.08968217948787    1.61053704969218    8.50754629473452
H         4.54414682359218    1.77933983869590    8.64400597872380
H         5.90220818052375   -0.22747151175136    9.09233792670081
H         4.80713159919984   -2.41316559474099    9.42657383161782
H         2.34181621256289   -2.58578089542649    9.30221566026274
H         1.88748704043619   -1.67227080594094    6.53287412003894
H         1.29379878620068   -3.17639191061636    4.67567436028720
H        -0.94662297640657   -4.19722494723052    4.57332619026355
H        -2.60591787686150   -3.71860924766319    6.33654117911456
H        -2.01124607861332   -2.21692254368000    8.21021883357429
H        -1.07238642162708    1.39922600278951   10.21758468628019
H        -1.95637238936798    3.58612401392196    9.46874645446658
H        -1.76511140146820    4.24123051758477    7.09793488558568
H        -0.69259590725959    2.72446337875295    5.47842387546965
H         0.19664577778632    0.54770037700914    6.22274895198624

