52
CSD_code = ZAQMUC | q = 1 | S = 0 | Stoichiometry = C25H24AuNP(1+) | MND = 2
Au       -1.08278961415030   10.55511445415930    9.02468423272223
P        -0.29253919123781   11.10187550161846   11.06980006613972
N        -1.84844097396277    9.96599339733453    7.06824941122523
H        -1.09985883630796    9.45972236480397    6.59992774637776
H        -2.08923583653885   10.75127457997558    6.46776532614648
C        -2.70731499743770    8.01542815386493    8.23547044715851
C        -1.86850932582513    6.95075461612107    7.92772173259232
H        -1.47723073302769    6.84495891920284    6.92564238707421
C        -1.54544794682359    6.01384208725277    8.89302560269991
H        -0.89687542233564    5.18820381174714    8.64349833645931
C        -2.06404091977889    6.12907681429291   10.17211126452487
H        -1.82190906489205    5.38967727934272   10.91972038155430
C        -2.90504866232474    7.18346950961956   10.48523135657709
H        -3.32375342527374    7.26938198407898   11.47613037320546
C        -3.21831876322684    8.12812232165980    9.52345982915628
H        -3.88463719020897    8.94300084293732    9.76783666334251
C        -3.01546397073751    9.05958109053859    7.19766007886281
H        -3.24679184808569    8.59046866133271    6.23607290938589
H        -3.87280393945024    9.65733330652382    7.51159174884541
C        -1.02044818454458   10.11611765633259   12.40044961278977
C        -0.73190058678345    8.75220855436777   12.42050780668459
H        -0.07344821465787    8.33516430743081   11.66888153042445
C        -1.27680151758380    7.95079223771453   13.40471718696557
H        -1.04091545703167    6.89803582324498   13.43300048233767
C        -2.12619162747370    8.49968918157152   14.35452463483278
H        -2.55102154838926    7.87203892699333   15.12272832374344
C        -2.43278295826974    9.85007546882688   14.31896952832462
H        -3.09868439836506   10.27353552740638   15.05522366092892
C        -1.88339256052881   10.66382531239513   13.34302470832599
H        -2.11702370406275   11.71894554212346   13.31619012015351
C        -0.56886631822224   12.82864570859276   11.53615976706232
C        -1.50987676983311   13.58202189258470   10.84248265340696
H        -2.05469208148545   13.12896038205852   10.02285826477594
C        -1.74133412458517   14.89689878141479   11.20435677591285
H        -2.47253716414848   15.48246329952967   10.66838665601597
C        -1.03119300370457   15.46076934692175   12.25219985702039
H        -1.20960693806790   16.48768548167360   12.53101370325529
C        -0.08926025612640   14.71180287781292   12.94163861389714
H         0.46371179855053   15.15525166691694   13.75541654690901
C         0.14613403468865   13.39642863778650   12.58830266518621
H         0.88173081219680   12.80858889577337   13.11975753221467
C         1.49643224281144   10.87286565880382   11.23255706779118
C         2.28342429215336   11.19036129603702   10.12870598597732
H         1.80510627752180   11.52332029151708    9.21526645283925
C         3.65871011258838   11.08076990699424   10.20618487025221
H         4.26875325604501   11.32854091067218    9.35110290466349
C         4.25143816879170   10.64845411066092   11.38268836021335
H         5.32490780594061   10.55782879555715   11.44204422358976
C         3.46964588681005   10.32942663295482   12.48135875931303
H         3.93367355405764    9.99217542942057   13.39561835873863
C         2.09219727248414   10.44176250265327   12.41388461734306
H         1.48222256082395   10.18806925875541   13.26999787410602

