63
CSD_code = ZAQQAM | q = 1 | S = 0 | Stoichiometry = C27H30N5Pd(1+) | MND = 4
Pd        5.47688624241799    7.78109059805178   -0.63056440900265
N         6.09280989925193    8.39008629766513   -2.40209396546570
N         7.58551496399582    9.58020538064006    0.97329123039463
N         7.55941382204996    9.59431214151943   -1.18554110631074
N         4.47120149262687    7.01342471229990   -3.14874703073593
N         3.19963365503401    5.86724640258978   -1.83377716999050
C         4.19562098208177    6.75299301564986   -1.82194574663961
C         6.97103245578151    9.02925539389119   -0.07293819824633
C         8.53813965982689   10.47368842233463    0.55628663731930
H         9.14573459263089   11.02643728292296    1.24317898725235
C         8.53171320848936   10.48442078040632   -0.79761915992445
H         9.12649670873538   11.04390647013762   -1.48883584374334
C         3.63407309771990    6.27810822279512   -3.95275615773940
H         3.66025003690137    6.31752716137362   -5.02155722382317
C         2.84361420542041    5.55918089533152   -3.12130922466925
H         2.06168104552390    4.86409358116564   -3.34913219308572
C         7.11253523466731    9.24358069220728   -2.46107854902906
C         7.59715919315646    9.67456221067429   -3.68921695861172
H         8.42118028947170   10.36353095632151   -3.76317335899032
C         6.97772100340601    9.17936266136187   -4.83194536926227
H         7.32966504034191    9.49513204318025   -5.80088747353013
C         5.91678417724571    8.28332047119711   -4.75292290276231
H         5.44750364854892    7.90459836528788   -5.64482893777367
C         5.49485593396652    7.90129034032867   -3.48596667715829
C         2.65030155627879    5.26299950791068   -0.64250771795746
H         1.67639446718460    4.83312050371065   -0.88265774886540
H         2.53369231740333    6.04537706799240    0.11426010604880
C         3.60039355520399    4.19256827802946   -0.09829604227913
H         3.74321238737633    3.40689441956725   -0.84363495880164
H         4.56829308916474    4.66987043846110    0.09708798373572
C         3.06516142855509    3.58661290010780    1.19599993372735
H         2.13639868801537    3.05011378496625    0.99286692006797
H         2.84322210120863    4.38929688214576    1.90024019204955
C         4.07718903442402    2.63794989889370    1.82377562500709
H         3.68121712533782    2.21996856583838    2.74489671336105
H         4.99615143277774    3.16982721911399    2.05683795103046
H         4.31210495705549    1.81946161194314    1.14756547974420
C         7.20826627996122    9.33290223709332    2.34533070353810
H         8.03148936324285    9.63767256015335    2.99162639925338
H         7.01547772228797    8.26168001843786    2.46115579221993
C         5.92643872023225   10.10245233452482    2.68305358471943
H         6.11161430258142   11.17655413828879    2.60810567013127
H         5.16929373996202    9.82308227911471    1.93899265772060
C         5.39912704897901    9.76695420705012    4.07642074045869
H         4.43675608117731   10.26523985158918    4.20104326559948
H         5.22512570425716    8.69250865582997    4.14307181992360
C         6.33247295863976   10.20750188373122    5.19778716782694
H         5.85355703984550   10.05034355306224    6.16013825626475
H         6.57144838277685   11.26486965230767    5.10743283864092
H         7.25792423880752    9.63761609339618    5.19091069845447
C         4.89517371453700    7.15322047371913    1.12534601728670
C         4.56040784486305    6.73370994015357    2.21606296144362
C         4.16361240832051    6.23105900095767    3.48153558705171
C         5.05493370019274    5.47914171932945    4.24848999661195
H         6.05037860579592    5.29097643065734    3.87200539549720
C         4.65991474508721    4.97696060808181    5.47303367351516
H         5.35204275290841    4.39276354929419    6.06095261181135
C         3.38105477767150    5.22091470552907    5.94814433952251
H         3.07644829059764    4.82720367315299    6.90573317458899
C         2.49377389223657    5.97178371441387    5.19316604068989
H         1.49779036991319    6.16415833338862    5.56355357220968
C         2.87708668524247    6.47503400702079    3.96533948632986
H         2.19103790065383    7.06358080179859    3.37281391328886

