62
CSD_code = ZAQWUJ | q = 0 | S = 0 | Stoichiometry = C24H24Cl2F6O3P2Pt | MND = 4
Pt        2.87233400681342    0.90742755180151    3.61999986936971
Cl        1.31963496346329    0.55112404122453    5.27680695933753
Cl        4.55468119944498    1.33911011641721    2.01921195104456
P         2.62547731179873   -1.29498896760740    3.16032020266169
P         3.05888820111610    3.11587955710222    4.14014657478108
F         4.73943182913175    1.67072672616578    5.79782143492876
F         6.73906936756994    4.51203611195967    2.63743829572468
F         4.71569899403647    4.63254412589076    6.77196159980825
F         0.45613552057052    5.42591148240336    4.94682762046756
F         3.87587093049720    6.18324596798827    2.06353802971975
F         1.43795009044605    2.20775899035241    1.52790233836450
O         4.53819317631832    3.79639496684868    4.07198757058214
O         2.47355826579948    3.64728662492277    5.52526571873107
O         2.35836802340323    4.20301020141876    3.16960000249426
C         0.89086657077642   -1.83999439619535    2.89000874414854
C         0.06697869595093   -0.76629821671688    2.18732696778687
C         3.57388963623055   -1.99017837813030    1.74451968818196
C         3.10214625161826   -1.45361908301089    0.39979421773395
C         3.18128326783502   -2.32936158566185    4.57148216695378
C         4.56522640138069   -1.89156572667724    5.03696494135484
C         5.69950437500407    3.10858991892424    4.21694907963065
C         5.83116022169681    2.03338237253798    5.08650135838102
C         7.01516265265727    1.33990810926712    5.23290672323517
C         8.11578788166505    1.73166989601147    4.49121634310372
C         8.02666265274021    2.80394442084354    3.62095511777897
C         6.82773216026233    3.47821133147982    3.48845201380671
C         2.57703455604681    4.97634154875453    5.85551778507377
C         3.70593854279204    5.47655166305941    6.49621113803938
C         3.81470621947230    6.80723256753573    6.85503021498927
C         2.77475842770340    7.67187579893901    6.56325061133145
C         1.63834730273776    7.20962300497194    5.92336175121354
C         1.55214873690736    5.87440181248234    5.57287829615834
C         2.64818330996570    4.19493121223178    1.83137005235163
C         3.42764411300515    5.20000489144414    1.26850961790715
C         3.73523414983174    5.20737166208666   -0.07962995928338
C         3.26244183271394    4.18914694502105   -0.88846140304727
C         2.47987558506879    3.17659623304751   -0.36095274122688
C         2.18804625944346    3.18985774205443    0.98866337000952
H         0.46327030670111   -2.03083147976296    3.87655514989845
H         0.89914834516122   -2.77499785623870    2.32181214579674
H        -0.96478248540242   -1.09278584706580    2.07363824228577
H         0.07784232784816    0.14421796690513    2.78437266147818
H         0.46895345351071   -0.53249486279477    1.20535460638932
H         3.49722592042729   -3.08168053053059    1.78014372698105
H         4.61831542616433   -1.70690154807256    1.89594847839795
H         3.77103605832114   -1.78423590385172   -0.39244913126314
H         2.09830470649283   -1.80100087473065    0.16760167158023
H         3.10861249129483   -0.36587144094134    0.42019642335906
H         3.16882102930176   -3.38413329720053    4.28166256037911
H         2.45890909663203   -2.17392165390510    5.37632067401629
H         4.86759319536693   -2.44573382686126    5.92322708901507
H         5.31109197367452   -2.04510704431128    4.25946473645968
H         4.53521839610012   -0.83032475490330    5.28476526402013
H         7.05681877239393    0.50685056137386    5.91525913389879
H         9.04641168738571    1.19673192167154    4.58953454774446
H         8.87015870738595    3.12159718553277    3.02974821363758
H         4.71108784625860    7.14612138900319    7.34850527382794
H         2.85193101919003    8.71273455799999    6.83331536203944
H         0.81897177297443    7.86742796967647    5.68269898001796
H         4.35234694634000    5.99984475047716   -0.47041015091641
H         3.50943027814155    4.18151736473546   -1.93781130406835
H         2.10963104444421    2.36998601260228   -0.97210861862391

