50
CSD_code = ZAQXAQ | q = -1 | S = 0 | Stoichiometry = C15H18F5MoO9P2(1-) | MND = 6
Mo        9.78160426515656    4.75754172061354    3.75925603645350
C        10.17236973877064    6.81065248382693    4.27142350394366
C        10.60721136789903    7.76253229815808    3.35563388721035
C        10.86210624560255    9.09290450656695    3.65344066474343
C        10.69497570355953    9.54466288684990    4.95406008348771
C        10.26895720991537    8.64126257647498    5.91636552042844
C        10.01824757391254    7.32630309487516    5.55369112937415
F        10.80295231453513    7.38790644478543    2.06557135445748
F        11.27254912870222    9.96190037329706    2.69563932047914
F        10.94213464631841   10.83770204358980    5.27694760751228
F        10.10509462994604    9.06138135574281    7.19607393922823
F         9.59364303192359    6.50077639164632    6.54423605138475
C         8.14674841791835    4.91116187608008    4.79424440436363
O         7.16920643873159    5.03634839018037    5.38549423733901
C         9.43246873510661    2.91534033081330    3.29977063664725
O         9.22387187256018    1.80676220636090    3.02257354608935
C        11.44918299081018    4.78587275460203    2.76662519306375
O        12.45363749273775    4.81642254085136    2.20902321426311
P        11.03642188912794    4.18576089245330    5.63084504908886
O        10.39876788189261    3.87596755451817    7.07107962477526
C         9.30967106272062    2.98438133882017    7.14949381620759
O        11.94304976126078    2.80941134686986    5.60808033327285
C        12.61982510794148    2.40199142170902    4.44640439348380
O        12.11849102539396    5.29276766193178    6.05215870910475
C        12.85831293547584    5.17323303208298    7.25636620923314
P         8.57369492068201    5.57305904439516    1.94886909724310
O         7.98151350150003    7.04740498769839    2.17174909995330
C         7.34597744453241    7.74913637129278    1.11557910386732
O         7.24891972820759    4.74647032225435    1.42210405446336
C         6.37815053781901    4.11204900007855    2.32370065989453
O         9.18644322027937    5.75379133638643    0.47617217379857
C         9.91713875817043    4.68891826481952   -0.08935339296130
H         8.61533350082900    3.37088040547812    7.89791844807103
H         9.66061622511493    1.99229133968604    7.44694557064798
H         8.80054445220254    2.90794098066594    6.18393913838467
H        13.05077190509166    1.42072709620564    4.65810245630219
H        13.41832614852115    3.10155960233664    4.18392031479335
H        11.92661082341975    2.32354719218516    3.60370885445959
H        13.76401417420957    5.77031211944330    7.13490655079683
H        13.12241558046438    4.13106206334215    7.45120905955007
H        12.27352061133272    5.55598265774096    8.09457576162036
H         6.69535056599612    8.49573842642869    1.57465300683574
H         6.75514349553878    7.07086318343152    0.49545997214067
H         8.09262782597112    8.24377375409993    0.49198826252422
H         5.66104501468865    3.54460668405406    1.72611637212798
H         5.84328107240653    4.83957201088057    2.94055892598776
H         6.93004276452580    3.43078980546045    2.97800617259505
H        10.79468982224673    5.10905481859407   -0.58462561925516
H         9.29727479730298    4.16106096249985   -0.81940768090982
H        10.23805164095604    3.98396004685818    0.68350517142040

