45
CSD_code = ZAQYOI | q = 0 | S = 0 | Stoichiometry = C19H20ClCoN2O2 | MND = 5
Co       -1.75458571005935   10.87380373113615    7.39180876901269
Cl       -2.58146159811356    8.94322337217888    7.61074242376785
N        -0.57733673427520   10.21969277361915    6.09011973737720
N        -0.45550592389876   10.53795290566250    8.68997234736693
O        -2.89629186267755   11.51362653544945    6.13512276337292
O        -2.83635429129371   11.66797922716861    8.64103920621366
C        -2.84829044626468   11.42429768383411    4.85462201598929
C        -3.85001189710811   12.10540700113056    4.11539372803899
H        -4.58332863970609   12.65435604315314    4.68556464477473
C        -3.88256148518605   12.07053689285127    2.75033192647001
H        -4.65841560423115   12.59633981736836    2.21320997531027
C        -2.90972290277549   11.35698278307600    2.04425693279437
H        -2.92532208501987   11.34485446330033    0.96513099971975
C        -1.93458993388634   10.67682284304317    2.72548244158167
H        -1.18064582115130   10.16007605322569    2.15224771503504
C        -1.86520960955268   10.67745675954777    4.13230038743603
C        -0.81570833255010    9.98574130131625    4.83135024514681
C         0.03208968397648    8.99423192959988    4.08238817686185
H         0.25593035919655    8.14355087182862    4.72204233685335
H         0.97180793036784    9.44801483466285    3.76579510521465
H        -0.48866661348273    8.62255001517844    3.20761988689802
C         0.54967906014119    9.58047685033299    6.73988900388973
H         0.29197742979536    8.53860803012079    6.96762162409081
H         1.44321134762805    9.60488379562344    6.10842644661503
C         0.83197572629625   10.32433769602786    8.04874177720104
H         1.48887202543149    9.69939332339401    8.66339244315298
C         1.50201066743694   11.67308379995199    7.76427520494942
H         1.64419503915842   12.23774348043946    8.68305046819870
H         0.87142992265640   12.26110807260659    7.09746929245712
H         2.47095118047050   11.52133715949965    7.29392302763210
C        -0.58658166308208   10.49971983233938    9.98161257876284
C         0.59870193276161   10.28709906768625   10.88828884014663
H         1.49527978168267   10.75625326116716   10.49344340310019
H         0.78649361364221    9.21925786801795   11.00300541951251
H         0.40516494744152   10.71292431266310   11.86723888538866
C        -1.87001352067774   10.69659063530898   10.60375812481884
C        -2.10963102527451   10.30642885535688   11.93308526653840
H        -1.35501842165166    9.75307542179536   12.47089274413060
C        -3.30272777245707   10.56621396702848   12.55765383082324
H        -3.46551928781521   10.23882974938579   13.57311573617019
C        -4.30859979708319   11.25442348152174   11.87481837433152
H        -5.24113686226916   11.47468470638147   12.37378375442764
C        -4.12643094548610   11.62437532309669   10.57098730209355
H        -4.89979159358794   12.12843175274254   10.01261981329014
C        -2.92861026746692   11.32402171918152    9.87656487304230

