55
CSD_code = ZARKIP | q = 0 | S = 0 | Stoichiometry = C20H30ClIrNOP | MND = 6
Ir        8.87778809543856    7.98236882980547    1.76525279683915
Cl        6.56082411069967    8.05155197366760    0.87392752862210
P         9.86137978014635    6.34930989532776    0.41346250702159
O         8.88486575413370    9.76728734079365    0.22542098093635
H         8.83528371023142   10.62759242895410    0.64806318273416
H         7.95935194622222    9.48190148542370    0.06875142397774
N         8.58388619759494    9.44580009309793    3.16713410561607
C         7.40607802164894    9.94592879567552    3.52377487915343
H         6.54683256813638    9.56430129050676    2.98766726451564
C         7.26340662380821   10.90063500591847    4.51286196940414
H         6.28504157695095   11.27694087998394    4.76404595164225
C         8.40174744329338   11.34987014156730    5.16903944672418
H         8.32979254516760   12.08846715348241    5.95332196199026
C         9.62947657853579   10.83530553053276    4.80058594933210
H        10.52992934175051   11.16592380551864    5.29250378454674
C         9.70918447914523    9.87780571535048    3.78992269259957
C        10.94326918012160    9.29997102436141    3.28018384594103
C        12.23527415767595    9.67343054121009    3.65481230883876
H        12.39697156669695   10.40269461689376    4.43490053566136
C        13.31881128619020    9.11260226113907    3.01024913494348
H        14.32080117806933    9.38807662439488    3.30478202242634
C        13.13378738483534    8.22551421743451    1.95577840473819
H        13.99482865892769    7.83903212173742    1.42680608689360
C        11.85690822087703    7.84875513143190    1.57215538205719
C        10.75811531226933    8.34177585086825    2.27268469326509
C        11.59505011090631    7.01222626239719    0.34865072933706
H        12.33853706563014    6.22514948646249    0.20787076898977
H        11.64475911210639    7.67887848011553   -0.51843085321427
C        10.11344900699442    4.64841707710350    1.22271422453578
C        10.85235773009923    3.62851517703384    0.35779680147679
H        10.25783689753441    3.31300962249454   -0.49463394748315
H        11.05794319101297    2.74275929909759    0.95841747766620
H        11.80611177745393    4.01581976928753    0.00613587886908
C        10.93565818907660    4.88126049315492    2.49399518037235
H        11.95753662981036    5.16994048944114    2.26455719244133
H        10.96900179923695    3.96258414568887    3.07744769669781
H        10.48698016989990    5.66077032038225    3.10453990975347
C         8.74570140059380    4.09320449429559    1.62198549319586
H         8.17219068372470    4.85703573518963    2.14251091322422
H         8.86989416326535    3.24062410469927    2.28772114445322
H         8.17621466859538    3.76526741769173    0.75827335434558
C         9.41329157577787    6.15095832467776   -1.41873486596589
C        10.55724449791948    5.67520270430525   -2.31418013362580
H        11.38075387199840    6.38487996939368   -2.31824202077236
H        10.18782951098710    5.59269298934743   -3.33634359083471
H        10.93837642186022    4.70351425239786   -2.02142094791873
C         8.97855955513655    7.54703929615498   -1.87185204488146
H         8.04013188040217    7.81077217232442   -1.39108796968440
H         8.82149472605226    7.56099070151401   -2.94978730965778
H         9.72212531233696    8.30310864214697   -1.62539956214113
C         8.20339856039871    5.22668873011929   -1.54607703622551
H         8.47001956195184    4.18212414292877   -1.40850809557708
H         7.76361619752291    5.33073061176118   -2.53762424630355
H         7.44903576287229    5.50316061454688   -0.81122055076664
H         8.65526425028428    6.97593171877956    2.87503756928244

