64
CSD_code = ZARKUB | q = 0 | S = 0 | Stoichiometry = C24H36ClIrNP | MND = 5
Ir        4.59153695888140    1.24251778762851    3.71718618881474
Cl        3.76617598926825   -0.92729078821086    3.05290987605267
P         2.53917736984212    2.23805079851388    4.19007703855626
N         6.30453012567095    0.55929009472159    2.78689023838592
C         4.44953707558199    2.32932613588848    2.08261763643054
C         3.47788811718535    3.30199359221130    1.85829266848594
C         3.41197008871449    3.90018890296516    0.61167281022831
H         2.66147417926464    4.65207736592674    0.40881717472907
C         4.31399035626529    3.54212255477933   -0.38501288977475
H         4.24771739184179    4.01418864687872   -1.35410162364465
C         5.29733152069103    2.60269639628987   -0.14992969025093
H         5.99261134806330    2.35846303482423   -0.93872590568478
C         5.38108906300111    1.98079176799759    1.09867616189645
C         6.36588354263157    0.97984588505890    1.49547407135094
C         7.31037841424559    0.46729776766126    0.61213372241922
H         7.33424607692144    0.80927525639079   -0.40893929527786
C         8.19462409745449   -0.49507792756207    1.05237492474068
H         8.92880522965956   -0.92098473497416    0.38489447389191
C         8.11450933718946   -0.91277975366966    2.36704125100718
H         8.78719140503885   -1.67541716842546    2.72160208433051
C         7.16019373350032   -0.36732175984140    3.22442886346788
C         7.11439998634909   -0.91387393041493    4.64882806389800
C         8.52370942609757   -0.87434637867299    5.26348304805302
H         8.94100096800412    0.12844061805139    5.19360939207831
H         9.20510390988724   -1.56594695235649    4.77690101631649
H         8.46898795311586   -1.15093750127862    6.31428148038781
C         6.61226136683599   -2.36391388289434    4.56594642567806
H         6.58719762115173   -2.80889179338177    5.55875868065671
H         7.25289380370539   -2.97249919622831    3.93230309465164
H         5.60682223302960   -2.38369388531968    4.15108855308306
C         6.19397779050999   -0.13852638027647    5.59247005867945
C         2.59454573041795    3.68490262092903    3.01667288232292
H         1.60557909779155    4.00579773472854    2.68543362646907
H         3.07070722125077    4.51778788491649    3.53697047521535
C         2.37494346182461    2.97807759786826    5.93778242572677
C         3.30656538511636    4.18562165461218    6.05356810542475
H         3.48750076978619    4.40366829487282    7.10507370329973
H         2.86440411402436    5.07150167781909    5.60358194283311
H         4.26291675322889    3.98013104129692    5.57787670758007
C         0.97560775755814    3.40682193914967    6.36641397309082
H         0.31980577228217    2.55127934931081    6.49692485439881
H         0.53462832310192    4.09522430933984    5.65078254782224
H         1.04252862341651    3.91903790416515    7.32651425134453
C         2.88755700655043    1.87913887610383    6.87266110632845
H         3.93292474511246    1.66799082110276    6.65113286932959
H         2.31743871397116    0.96043390514073    6.75275358384638
H         2.81150478034342    2.19667319819758    7.91192754426428
C         0.92561386334126    1.39934788953591    3.64734310480832
C         1.14739962064164    1.03751980943185    2.17550985373271
H         2.07665007907674    0.48987468672364    2.04919496334516
H         1.17780953848104    1.92092565280618    1.54184257318339
H         0.33579005513233    0.39788088028139    1.83060735615309
C        -0.34482843326771    2.24944026396688    3.74080316503591
H        -0.17793798547902    3.28236120418766    3.44559680837926
H        -0.77292396949008    2.23766453714416    4.73732999814413
H        -1.08869786863706    1.83151287544411    3.06325295904053
C         0.75526761835415    0.11624760896642    4.45739162440489
H        -0.09210018675543   -0.45380780376009    4.07844597936888
H         0.57499675621811    0.32703896293997    5.51021447674106
H         1.64575869473885   -0.50146665585532    4.36382231774330
H         5.29993065123792    2.45944019302527    4.31311630257931
H         6.14542665854687   -0.65352513405292    6.55155020221091
H         5.16131413187968   -0.10750547291951    5.20744994118876
H         6.57785604066147    0.86559712027321    5.76900818097675

