55
CSD_code = ZARKOV | q = 0 | S = 0 | Stoichiometry = C21H30ClIrNP | MND = 5
Ir        3.69898080145009   -0.00689899727716    0.54124328199333
Cl        3.24577525709354    1.23545739399806   -1.43408107425141
P         2.76955038355589    1.51770749510718    2.00905655451454
N         5.06151610740378   -1.21060072067751   -0.45464828801914
C         3.49188923921625   -1.95785356017018   -2.14482891403637
H         2.77364429156474   -2.01754955532406   -1.32560336925139
H         3.38723628628442   -2.82371534269708   -2.79400842778057
H         3.26114847177593   -1.06076378545330   -2.71944519887302
C         4.87870162328215   -1.86233942473251   -1.60289507808213
C         5.94345887575027   -2.44552927923559   -2.28051405078673
H         5.76694857891876   -2.94631331488625   -3.21939438088164
C         7.21643973069399   -2.37379871500276   -1.74048701654260
H         8.05748995731170   -2.81059515529492   -2.25788846806379
C         7.38698052986312   -1.75419815584370   -0.51791545337035
H         8.35980453579407   -1.71166861257738   -0.05677849022761
C         6.28978861157841   -1.18008342592403    0.11945941912538
C         6.34526029114930   -0.54667843918889    1.43196618460660
C         7.48870721093635   -0.39400784176394    2.22069958503328
H         8.44909645439199   -0.74410820995809    1.87323611114940
C         7.39656287243946    0.22235428959653    3.45149640363034
H         8.28213388879021    0.34111728571272    4.05802095774726
C         6.17780237497883    0.70510008223232    3.92018455200550
H         6.13143657771613    1.19487432629648    4.88342356320971
C         5.03403065903438    0.56818397574114    3.15400867977845
C         5.11901423332428   -0.06917585379428    1.91431230507092
C         3.67505485967534    1.06070278753496    3.57190333258144
H         3.72504744315417    1.86676785536666    4.30361362999389
H         3.13572974341621    0.22040441532771    4.01317619545746
C         3.31272536934902    3.31272540586658    1.73449552687676
C         3.32796884820894    4.17872173931062    2.99557802867287
H         3.52327937337831    5.21055689195126    2.70426900356258
H         4.12453268986566    3.87617678677904    3.67115501325105
H         2.38453429428353    4.15727021155976    3.53036425622553
C         4.74381400275529    3.22615268225069    1.19474130806892
H         4.76790074246076    2.66002998237664    0.26602018294066
H         5.41375640322717    2.75334741562621    1.91136825185405
H         5.12020198780462    4.22701752399908    0.98476112058664
C         2.43180532818476    3.94964236513712    0.66115918076492
H         2.87592843823453    4.88768061478790    0.32846673631522
H         1.43298498542301    4.16739149234296    1.03205579551625
H         2.35953664205951    3.28984850468732   -0.20132752378254
C         0.92599263784004    1.39214624256339    2.43023449144158
C         0.37002954292467    2.49709969133415    3.32297336214123
H        -0.66823693791108    2.26947972120225    3.56452547360789
H         0.38782938847595    3.46501354128544    2.82991622302328
H         0.92407432117319    2.55830482335419    4.25779809802893
C         0.19859484048086    1.35654285404844    1.08495750143461
H         0.63898271555261    0.58340967340868    0.45382913407060
H         0.27222271234539    2.30399757422864    0.55988766941155
H        -0.85656457911826    1.12807098933652    1.22868955894973
C         0.70836641887549    0.04384981157834    3.12267279112372
H        -0.34819643481493   -0.21657349793495    3.08772239158735
H         1.00575689774966    0.07848632385276    4.16811371964963
H         1.27049395412031   -0.73856104324966    2.61479503148610
H         3.10965552651389   -1.19881983877158    1.28606512749622

