123
CSD_code = ZARNOV | q = 0 | S = 0 | Stoichiometry = C54H60NiO6P2 | MND = 4
Ni        9.07964458298806    5.19454519013856    0.43187103413990
P         9.76211404477763    4.70544679386146    2.42893417460895
P        10.39149540713202    4.13035490495517   -0.92214639191380
O        11.34917955914109    4.44234611688148    2.50685126398489
O         9.23515406621323    3.28956139466832    3.00253417338970
O         9.49810047216797    5.47180765695827    3.85841962616669
O         9.96906773086425    3.32198860507123   -2.26629734173067
O        11.48978348250871    4.96248036827253   -1.76787244221776
O        11.35577755793504    3.04667580296450   -0.16056388630853
C         7.69960694313010    6.22900483990779   -0.59672501834777
C         7.42622640418862    6.30310670041227    0.62448360396060
C         6.81582745435756    6.50408342208318    1.83448212079137
C         6.27868235319260    6.63102645232895    2.90878466375722
C         5.61731095461954    6.75148548694804    4.19649181943207
C         5.96916248514488    5.51115306490888    5.02877705074158
C         6.11067621767674    8.02176862762390    4.90063970735826
C         4.10010957735629    6.82557593967063    3.98183169639140
C         7.36085183924533    6.53552570054023   -2.00330081934292
C         8.61769147485557    6.70915493311018   -2.86030548426690
C         6.54218238713234    7.83410470001879   -2.01582830423316
C         6.51071168666579    5.37784286673750   -2.54479076444990
C         7.91655293173086    2.91041137593826    2.90961054287059
C         7.17671210011091    3.11974221624793    1.75757439187962
C         5.86425536849836    2.69144051300707    1.68428322360379
C         5.29039795008802    2.04855138552020    2.76672764843464
C         6.03144679796871    1.84372093911786    3.91830284246306
C         7.34855134524201    2.27012435308112    4.01385170018543
C         8.15686980696268    2.06735363483245    5.25784418180496
C        12.01158888068743    4.02433952548603    3.64860962490137
C        12.48292118537026    4.98688190134380    4.52967890061182
C        13.18326062897409    4.61196618402552    5.66242661880975
C        13.41690591934090    3.27083373854760    5.91028865615013
C        12.96411137739884    2.31802252127100    5.01570560938541
C        12.25814508749323    2.66953025376077    3.87122582469674
C        11.79079343610874    1.62006566402275    2.91248019887869
C         9.65710083416311    6.80697941878955    4.10421859918227
C         9.68314275313578    7.75701104071040    3.09676447694589
C         9.82661704936785    9.09743497769779    3.40628431710981
C         9.95615095650773    9.49254209448554    4.72502719371121
C         9.93908287739960    8.54040500911852    5.73015653085959
C         9.78940760424169    7.19156573208467    5.44466279897376
C         9.76421288019146    6.15898634872605    6.52955863680242
C        12.02414283787454    6.16303527318647   -1.38219986008276
C        11.45782301836002    6.96439797536700   -0.40518227780826
C        12.04835425225900    8.16655471360598   -0.05917176379699
C        13.20565189827175    8.57325849733664   -0.69782916440251
C        13.76295520166219    7.77720513710009   -1.68476279732058
C        13.18977594794712    6.56716756160111   -2.04334198391569
C        13.77409883550764    5.69262395708515   -3.10851999186620
C         8.91396941554537    2.44981716894673   -2.29314916095524
C         8.46033414541994    1.80785661585999   -1.15169042276270
C         7.38122149981590    0.94328607207667   -1.22329412875960
C         6.76900728775531    0.70666265136736   -2.43988045276699
C         7.24190648511824    1.33036078376749   -3.58335690983400
C         8.31259629780847    2.20885284619730   -3.53390103627318
C         8.83221734954011    2.90270809793158   -4.75412709175989
C        12.46919026615187    2.50878212694192   -0.77796196325955
C        12.31433396234692    1.44548391591678   -1.65732251131051
C        13.41788368622786    0.88203237805665   -2.27042431354469
C        14.68147145999089    1.38100167059929   -2.00546600037933
C        14.83175278511625    2.42943270936457   -1.11703371939244
C        13.73826896665921    3.01266072380581   -0.48652878500938
C        13.94382489605806    4.13145860879274    0.48819296545736
H         5.56098117686595    5.60150552438556    6.03390680643052
H         7.04859812233631    5.39727682519294    5.09260635240718
H         5.56437781443188    4.61466194989468    4.56293133215372
H         5.61967284727726    8.12896106905679    5.86613743500528
H         5.88897235134134    8.90053336410265    4.29830681600814
H         7.18617496261679    7.97942212488573    5.05659307515993
H         3.58935359980494    6.89291982251552    4.94047103817295
H         3.74781155120210    5.93787952678431    3.46004693699756
H         3.84164675555987    7.69939381354327    3.38709517898057
H         9.23839283993129    7.51473494193258   -2.47060020286308
H         8.34304735145111    6.95021322708626   -3.88625167942494
H         9.20610518451233    5.79395159855608   -2.86361631628537
H         7.13385074018419    8.66056264300133   -1.62785374985842
H         5.65332480584597    7.72970176356550   -1.39747423000148
H         6.23598946855098    8.07300344870768   -3.03267620897675
H         6.24207995260659    5.56145925264044   -3.58352452192623
H         5.59722763618042    5.27481315853485   -1.96208934937462
H         7.05895150338031    4.43939973172128   -2.48614203120866
H         7.63609291170731    3.62545729434077    0.90524097832223
H         5.29783182591175    2.86144263353450    0.78147882420872
H         4.26579713607950    1.71114391807204    2.71807401444979
H         5.57946350997835    1.35001059993126    4.76674239318338
H         7.51123875705385    1.87518969226080    6.11097248461540
H         8.76660093666386    2.94732870767512    5.45353068719474
H         8.83274438261219    1.22041224736389    5.13743258750323
H        12.29748833366113    6.02904504391160    4.31331846769872
H        13.54120762222314    5.36711762035771    6.34588116415303
H        13.95841981970416    2.96776311252083    6.79402435719296
H        13.16093971442094    1.27185480153362    5.20245339744932
H        12.52451089488554    0.81970859587683    2.83626466659945
H        11.62388474270775    2.05005130547966    1.92979874444518
H        10.85024225646911    1.19054934065720    3.25648125667812
H         9.57516300727084    7.43775125569984    2.07043478783645
H         9.83375746389101    9.83089550658419    2.61408419436330
H        10.07070263394536   10.53688434394823    4.97293272687717
H        10.04239775954146    8.84697526758787    6.76117846936763
H        10.09370421206325    6.58540999385547    7.47361131934681
H        10.41065031504535    5.32220391804862    6.26778942075887
H         8.75396801043253    5.77038275825567    6.65863045722370
H        10.53292939901820    6.64082634449896    0.08594817684072
H        11.60358841763535    8.77898093606144    0.71028189294826
H        13.67355871619233    9.50868268152927   -0.43085527619296
H        14.66444113303978    8.09800389591319   -2.18679790091969
H        13.94755597789040    4.68910257998553   -2.72088886815412
H        14.71031852830662    6.10319464147489   -3.47712529642499
H        13.07496150934919    5.60124967058170   -3.93889478949957
H         8.96545430409400    1.98319007029172   -0.21281223474398
H         7.02634416734180    0.46103473352393   -0.32509404238711
H         5.92740297573033    0.03359100721995   -2.50270534870578
H         6.76735601184832    1.13745992344506   -4.53457696505104
H         8.69439209086679    3.97916015532073   -4.66018017497363
H         8.31641218461348    2.55626835467841   -5.64568247240536
H         9.90039799576010    2.72014625980684   -4.86148161730755
H        11.32379795313120    1.06088812548635   -1.84772982880936
H        13.28822290268110    0.05682929737377   -2.95439788255353
H        15.54795560217586    0.95116210680458   -2.48556771967196
H        15.81807216475210    2.81547930637441   -0.90154523677168
H        14.50158571461980    3.77127121139515    1.35303490335184
H        12.99459974399273    4.52498912725859    0.83911196178660
H        14.51342264886340    4.94032994649689    0.03183500833510

