89
CSD_code = ZARPUG | q = 0 | S = 0 | Stoichiometry = C38H42N4NiS4 | MND = 4
Ni        3.31155448089578    3.69519334902565   10.70949646544548
S         3.59810617783587    1.75703073585928    9.61290808381638
S         1.72395637919767   -0.48786081527513    9.66670097211890
N         1.64576502160159    1.51349562315276   11.39150242279248
N         2.10654861422242    2.70460021397205   11.83681712751377
C         2.24407935252251    1.01787601382389   10.35745531702122
C         1.77239237166531    3.06241343630098   13.04235471752589
H         2.08511238654422    4.05283356767418   13.35179659879157
C         1.00879932060859    2.34426548692866   14.03554418549564
C         0.68600462923964    0.98451928822920   13.97858452776990
H         1.03428110738235    0.39605710071660   13.14749405599995
C        -0.05508327442499    0.39374896293258   14.98021253824253
H        -0.29001858837267   -0.65762172262042   14.90426473687408
C        -0.50172429129377    1.12473024970499   16.07661359862268
C        -0.16616298957294    2.47385663462210   16.14520166718285
H        -0.49417440281304    3.06008594301641   16.99205931546840
C         0.57796030378395    3.07352785940709   15.15311750165771
H         0.82540013384551    4.12249234685011   15.22732187881359
C        -1.33188815648636    0.48688158421810   17.16031512512183
H        -1.52036333425872    1.23980235855498   17.93369044920163
C        -2.68150677682908    0.03244806203481   16.59840231038622
H        -3.20613340020148    0.87185808051336   16.14715469695114
H        -3.30093065357196   -0.37642737217797   17.39343313904001
H        -2.54519091391919   -0.73404534360038   15.83951764079886
C        -0.59045862273237   -0.68445884282717   17.80787013464983
H        -0.42805202859369   -1.48594458288053   17.09187718045079
H        -1.17103427987959   -1.08070442929121   18.63790493047989
H         0.37645773489636   -0.35942214691037   18.18572052839339
C         0.25804138210049   -0.90771433371808   10.71095128364253
H         0.63546543224671   -1.42861652797358   11.58997317685886
H        -0.18499006677216    0.04576460819211   10.99301810167979
C        -0.67984621403113   -1.76103757865149    9.92635928509534
C        -0.66143606473736   -3.14345872913168   10.05479228058902
H         0.03331821117690   -3.60757273614393   10.74011400811672
C        -1.52367051876800   -3.92989105801046    9.31307012841341
H        -1.49675925587437   -5.00414973346421    9.42754746490652
C        -2.41935634280202   -3.35771252171636    8.41995716375828
C        -2.42970105658021   -1.97333444275360    8.28851517309212
H        -3.11776827673953   -1.51094987755231    7.59531814726422
C        -1.57186295952100   -1.18465126854197    9.02898055900210
H        -1.58846392488513   -0.11075958005097    8.91120141455486
C        -3.36764213825524   -4.20279508530437    7.62593198831988
H        -4.36401304699623   -4.16030786278735    8.06709194882099
H        -3.04599960927717   -5.24115139609219    7.61120954117263
H        -3.44117578953669   -3.84121274434171    6.60232362307425
S         3.02386855284508    5.63348098944144   11.80567733985636
S         4.89766138551285    7.87879836366051   11.75171229174685
N         4.97599508999314    5.87760461216835   10.02688141455591
N         4.51541172018080    4.68647060949351    9.58155212923097
C         4.37733369397340    6.37326555263688   11.06069314809958
C         4.84988013872372    4.32858192048081    8.37612525366456
H         4.53770517529877    3.33796234686845    8.06682098711887
C         5.61374000015789    5.04660508193254    7.38308206599963
C         5.93630475313936    6.40639653230149    7.43989145556067
H         5.58777566577520    6.99493287170442    8.27082800210486
C         6.67733691115667    6.99714773470143    6.43822343677906
H         6.91210948055993    8.04855871713408    6.51405668056976
C         7.12417345117599    6.26608223842358    5.34195875867071
C         6.78888103765691    4.91687914867630    5.27355097543750
H         7.11703283220897    4.33058619378004    4.42679247457699
C         6.04485139841625    4.31721208482638    6.26570234016003
H         5.79742009252471    3.26824758042631    6.19154512625456
C         7.95435900628632    6.90388348083825    4.25825587210569
H         8.14300518976910    6.15087057924168    3.48500749465644
C         9.30384141482139    7.35859495526455    4.82028038471273
H         9.82856205881082    6.51932429138673    5.27168233384967
H         9.92326168523489    7.76744983175201    4.02524164029432
H         9.16735141149761    8.12518039916941    5.57904710185462
C         7.21276726318502    8.07501780196934    3.61051410260593
H         7.05017182280291    8.87658914195271    4.32637213883207
H         7.79337117513918    8.47122529891559    2.78048556475649
H         6.24593645065448    7.74978755318858    3.23260746787552
C         6.36361240707848    8.29888529131882   10.70755347777269
H         5.98629346976458    8.81971927050890    9.82845047838231
H         6.80665935367460    7.34541839514710   10.42552484317327
C         7.30165509645217    9.15223541914443   11.49191714897784
C         7.28320874021138   10.53464284743262   11.36341314105749
H         6.58829970938504   10.99871930707497   10.67821324650802
C         8.14527425476782   11.32114102574928   12.10524707115605
H         8.11834035576447   12.39539439340013   11.99070943170133
C         9.04088153365391   10.74902994321311   12.99847434719068
C         9.05122617225933    9.36466150506073   13.13001234420650
H         9.73941647280989    8.90230320637607   13.82311097807570
C         8.19355561650107    8.57591262396691   12.38943396122226
H         8.21013985597653    7.50202650464787   12.50729641883818
C         9.98923785130872   11.59416455546511   13.79235988824442
H        10.98561035583017   11.55168393764527   13.35118944664691
H         9.66755888674389   12.63250802017768   13.80703624515748
H        10.06278494826578   11.23263706741283   14.81598241477402

