99
CSD_code = ZARPAJ | q = 0 | S = 0 | Stoichiometry = C46H48NiP2Si2 | MND = 4
Ni        3.39037380786339   10.41188600612131   12.66437246173939
P         5.52304702859352   10.83173038547457   12.37518945602194
P         2.10633045586776   12.02998785937056   11.97916691792144
Si        6.94026798766331    6.56762682380496   15.21718989194312
Si        0.47121807854292    8.28847101918394   13.36836515280331
C         2.20467219860703    8.98912110089194   13.32880831322910
C         3.41337041508824    8.69431760685701   13.59344816860715
C         4.47859608747087    8.00917118260210   14.10423524321086
C         5.44871867863614    7.42060662560045   14.54691204066650
C         8.43048538433303    6.95075754404863   14.09025725528062
C         7.26215178430627    7.21434966149310   16.98226392131572
C         6.62666922613797    4.68507305578568   15.25537553556196
C         0.35784378303039    7.24421583628472   14.96519552116010
C         0.27141102536386    7.16996894617302   11.83231479766779
C        -0.91439110077149    9.59977503526241   13.36104208837674
C         6.21963714532741   10.91877907656912   14.06167345949715
C         7.54568996494935   10.69601326084908   14.40583021525462
C         7.93773904809394   10.78604773133367   15.72979763742164
C         7.01383930110931   11.09660302801290   16.71467138593971
C         5.68738976737147   11.31398314963162   16.37806959801550
C         5.29530094033187   11.22174176592118   15.05710758396071
C         6.13246836447790   12.39117753984289   11.64049369679086
C         6.76311535967588   13.39856891015211   12.35784247154599
C         7.19276632537593   14.54423688727950   11.71046703661144
C         6.99012957085896   14.69594934022367   10.34999647664408
C         6.33973862345813   13.70384650969862    9.63300704408210
C         5.90758443736688   12.56251963427432   10.27691383679481
C         6.65539163518812    9.67591268745148   11.52494539357521
C         7.95116086643076   10.02456424956391   11.15561989189467
C         8.77090127209677    9.09500768161488   10.54279791152513
C         8.30431056913444    7.81650712106040   10.28152461345410
C         7.00777188856551    7.47178183493656   10.62361637479028
C         6.18742684347147    8.39908560273881   11.23981151579724
C         2.75670929146411   13.52469345609495   11.15190371435825
C         3.46311667977038   14.42430229805961   11.94672336195299
C         3.98670734337048   15.57892408123933   11.40231091673845
C         3.82654311155246   15.83944264887177   10.05028395376219
C         3.15246692918136   14.93508911247066    9.24877204894812
C         2.62084166564177   13.77906817020505    9.79379170194128
C         0.96940331569517   11.39074099608088   10.70102399871305
C         1.44589705549125   10.28229332748877   10.00735468851297
C         0.69214900472047    9.70232338420442    9.00499415567062
C        -0.55774234736606   10.21890476280927    8.70198004046154
C        -1.04545566313860   11.31084480119654    9.40170302862708
C        -0.28588749325915   11.90117380820247   10.39691580980413
C         1.00686604793466   12.84987374446401   13.18566459846098
C         0.86383978868510   12.23893179843628   14.42594556878981
C         0.04760690590913   12.79570835819216   15.39334933106255
C        -0.63135979704048   13.97284502836556   15.12696421068278
C        -0.47889235224743   14.59730490833578   13.89901511925925
C         0.34155954365817   14.04511500428610   12.93227935741576
H         8.63482429214194    8.01628670528637   14.06801803064317
H         8.24034414145514    6.63715773865466   13.06831234738794
H         9.33092097188822    6.44666469462921   14.43008726957302
H         7.37147267231227    8.29460253168793   16.98202975635241
H         8.16645910989620    6.78775602824170   17.40716043602355
H         6.43841603064896    6.96908312241321   17.64583946038566
H         5.76663343195679    4.44235199087191   15.87215956218642
H         7.48114744079671    4.14711164168023   15.65639595369238
H         6.43360640796717    4.29927446546290   14.25890334632417
H         0.47555549538914    7.85923151546713   15.85210533248543
H         1.13239534187428    6.48415693338410   14.99110360537643
H        -0.60271864426164    6.74320503549895   15.03693162008587
H        -0.64091832921972    6.58392208180360   11.89427191844847
H         1.10250410582288    6.47807883473450   11.73470084337316
H         0.22314642540112    7.76156452575179   10.92312147194599
H        -0.99478282550132   10.11428084520846   14.31348911098774
H        -1.87523731587048    9.13571013751456   13.15610183343991
H        -0.74424516889642   10.35119941787063   12.59588786743310
H         8.26954291616602   10.44915286055377   13.64322718002846
H         8.97038457949075   10.60996118556463   15.99657011797459
H         7.32766625168519   11.16378021844948   17.74648697158538
H         4.96456515143593   11.54852050960066   17.14594269370899
H         4.25312493829731   11.37589198023493   14.77252477287638
H         6.92352319529495   13.28541358680945   13.42099905103745
H         7.69193174238822   15.32126470276201   12.27207087357959
H         7.33289817972785   15.58891999236332    9.84812563649797
H         6.17004019535022   13.82491672239605    8.57302899947490
H         5.39310303066118   11.78353581887415    9.72799270112771
H         8.31334443277960   11.02806908579406   11.33367650546289
H         9.77861851442443    9.36879935874090   10.26394980900655
H         8.95012510318814    7.09421411417051    9.80330268218111
H         6.63534348283481    6.48049483350604   10.40861252449690
H         5.17098224852278    8.13794754905867   11.50231475834786
H         3.58956194285888   14.20812543135917   13.00024691703907
H         4.52232108090503   16.27749104460255   12.02844013939648
H         4.23260335381080   16.74421977160901    9.62227736905045
H         3.03518553531309   15.13208722423897    8.19253221086550
H         2.09352485304457   13.07735892695640    9.16267255706313
H         2.41755695484996    9.87531413479136   10.28358220007922
H         1.07056880369942    8.84637050868736    8.46445299896040
H        -1.15633817978791    9.76563296839302    7.92522968538781
H        -2.02502894768145   11.70433535547333    9.17055454222282
H        -0.67549943136671   12.74809049922559   10.94293086302410
H         1.40464552272329   11.31892185045577   14.61824768097155
H        -0.05834634331510   12.31541750696532   16.35564476528971
H        -1.27263067752600   14.41066765572705   15.87813342574536
H        -0.99935803105498   15.52265038503545   13.69667691132877
H         0.47842022346533   14.55123158232954   11.98633417591245

