99
CSD_code = ZARPOX | q = 0 | S = 0 | Stoichiometry = C47H48NiP2Si | MND = 4
Ni        8.10210920670130    3.00119395106177    3.71290097418003
Si       11.63644235036993    2.14349106199715    8.37395425721012
P         6.60126343560319    3.28330711243095    2.15331365868060
P         8.34479535127952    4.79757001886277    4.92348828525612
C         8.73456759355748    1.15941745466998    3.66406062779649
C         9.21552758167183    1.74007571642966    4.68844158520093
C         9.94259004906813    1.88932441520992    5.83739870255874
C        10.60126356963362    2.02754324246567    6.85213951212273
C        12.17817536720693    3.95076664492273    8.67045981379427
C        13.19134775067564    1.06161442124336    8.14112207911400
C        10.61801855977601    1.50963583071978    9.85804182830458
C         8.71903534331981   -0.11658518662330    2.90085077392618
C         9.54852738628794    0.05976968252853    1.62300690719766
C         7.28837289576888   -0.52023247042892    2.53437772125513
C         9.35273910308162   -1.19948996945326    3.78551171038331
C         5.04508578520390    2.51984040375666    2.72839021371743
C         5.09798757791149    1.82425269227304    3.93074275401987
C         3.95769931331605    1.24873218518703    4.46035869462821
C         2.75370919830280    1.36650775729070    3.78610957177343
C         2.69001897288174    2.07474340542806    2.59564694106856
C         3.82748224324294    2.65921274290282    2.06958826247840
C         5.90748949454633    4.92385272651088    1.71242711545538
C         5.13747852939707    5.56444690124408    2.68026827618778
C         4.58249048522361    6.80343504094988    2.43482199249829
C         4.80408973380586    7.43106915394485    1.21948259489918
C         5.58472834651114    6.81180527752619    0.25982312476172
C         6.13594190750426    5.56525319254549    0.50240090482440
C         6.87126405580976    2.60103641428339    0.47924654436031
C         6.01564474637856    1.73287033623079   -0.18523734151341
C         6.35102057790158    1.25649145313200   -1.44149939491190
C         7.53703658118493    1.64001334885745   -2.04399214838743
C         8.40459224439371    2.49307458809918   -1.38010784134426
C         8.07652340991891    2.96047344215397   -0.12197534144553
C        10.04711808988122    5.36931698241500    5.26194048235875
C        11.10139573585279    4.71414905258839    4.64052274253647
C        12.40312108003402    5.13901412251760    4.83787099328694
C        12.65576888606750    6.22804739363122    5.65421804683210
C        11.60507455458346    6.89645902580990    6.26511209105200
C        10.30453500847612    6.47433644820690    6.06730225310790
C         7.69282571663219    6.43582478241449    4.42969106894770
C         6.90033486918163    7.25597789672277    5.21968569700545
C         6.51269885030194    8.49978350336122    4.75105537053362
C         6.91589356694362    8.93401060525517    3.50046299829390
C         7.70557026150147    8.11777123216315    2.70610610997404
C         8.08544064592518    6.87455668042666    3.16835361509953
C         7.62976062593442    4.57156309314591    6.58363929443621
C         6.25801974664088    4.33408119099881    6.64872708622718
C         5.64497150735158    4.08330724793852    7.86032877535081
C         6.40061778991886    4.05255730577221    9.02223028350262
C         7.76813852114851    4.25856083626592    8.96005745319327
C         8.38551694652877    4.50886040459368    7.74685103540126
H        12.50873663464431    4.41435951914947    7.74547747505638
H        13.00165846180810    4.00393107068990    9.37755915836865
H        11.36888749009119    4.55607015031304    9.06818781469222
H        13.79704595035452    1.42075395310973    7.31445596540233
H        12.92314271116571    0.03150221863456    7.92667324346989
H        13.81498130565471    1.06117272669444    9.03083915104344
H        11.12656351601805    1.69189105296880   10.80079243726987
H        10.44008010243307    0.44128660862372    9.78047600669280
H         9.64889514224995    1.99716078361794    9.90301597673979
H        10.56771937851735    0.35136447698227    1.86939127720291
H         9.11095110368170    0.82857625000683    0.99008574409653
H         9.57942310762844   -0.87379160189116    1.06420509157058
H         6.81171288644896    0.26543637165740    1.95128120023786
H         6.69693309863448   -0.69175670013904    3.43153130326504
H         7.29629695052414   -1.43442737654778    1.94363901962278
H        10.37259750807725   -0.92802053905267    4.04847538273779
H         9.36770531131079   -2.15154225334100    3.25800023612648
H         8.78541291337694   -1.31945004343411    4.70586037345474
H         6.05316543354835    1.75279242613479    4.44970360460631
H         4.00579358206783    0.71340303166679    5.39764405114658
H         1.85972853248900    0.91569572721246    4.19199740820331
H         1.74599510544577    2.17663009556072    2.07952862247746
H         3.77044405498351    3.23591203109021    1.15634109696372
H         4.96895154272263    5.07514431957265    3.63045578917533
H         3.97890503173178    7.28348534881350    3.19114773022683
H         4.37081952444572    8.40077288722898    1.02350854911927
H         5.76335749941832    7.29895806102484   -0.68829942698995
H         6.73715795973297    5.09040707249129   -0.25977252046609
H         5.09306558651581    1.41553187703595    0.27902438020001
H         5.68171653628291    0.57891131750998   -1.95185944727283
H         7.79155095889497    1.26616360217284   -3.02481032932721
H         9.33903576433863    2.78197951017213   -1.83939926675329
H         8.75994664112052    3.60217952297284    0.42247374858709
H        10.89104349439475    3.86631074223408    3.99899360875043
H        13.22017996201704    4.62153863468153    4.35631663369698
H        13.67110329714829    6.56191926695328    5.81339353792121
H        11.80435534241781    7.75062591467623    6.89637811767884
H         9.48390032507266    7.00150689809129    6.53444008661620
H         6.58400452312080    6.92593446505630    6.19943063215245
H         5.89561609651261    9.13595245984491    5.36994405338855
H         6.61338303471470    9.90732606820018    3.14272913562225
H         8.01826933013473    8.45237259821190    1.72775514633732
H         8.69436734757007    6.22108638546858    2.55473404550651
H         5.67744362907548    4.34185045268617    5.73442901641168
H         4.57961438405399    3.90587610087172    7.90102658041332
H         5.92401158058947    3.85732065640929    9.97192475090902
H         8.36018419431738    4.22274043740652    9.86348158876829
H         9.45468498215903    4.64476462792136    7.70127346171069

