62
CSD_code = ZARVIX | q = 0 | S = 0 | Stoichiometry = C30H25Cl3N2PRe | MND = 6
Re        2.32587302013476    2.05842330722307    0.10314976003709
Cl        2.97149897720266   -0.16931827117974    0.58253203199845
Cl        0.43515830440761    1.75798287481029    1.24486144980090
Cl        1.70392852095251    4.39426752564270   -0.09276027935205
P         3.26499798076534    2.33559432943444    2.53509529390109
N         3.94289191326374    2.55241345669986   -0.47537238255157
N         1.58736048657525    1.67140644754480   -1.48108229537319
C         2.94762518738020    0.87077848805370    3.57716560552061
C         3.89838757337722   -0.11080100026432    3.82843267375332
C         3.56838594928381   -1.20852189505223    4.60323045287953
C         2.29320912432184   -1.33994279577553    5.12586442740725
C         1.34417296523088   -0.36087153795441    4.88174432552414
C         1.66833350531349    0.74157065491206    4.11484656149402
C         2.72502061681815    3.62404875365992    3.70966321722952
C         1.96972881607173    4.71147479519203    3.29098292133509
C         1.55787827424875    5.66216572374087    4.21145875917251
C         1.89907194310881    5.53408840995267    5.54597669886047
C         2.65773820085063    4.45112110187746    5.96643238998914
C         3.06849646294709    3.49773521548179    5.05627594482567
C         5.08235295899792    2.49963321490753    2.54835792386542
C         5.73929524424059    3.55362063988060    3.17229583825402
C         7.11491862118865    3.66754958698284    3.07521493281181
C         7.84460893372139    2.73970202073449    2.35255995961096
C         7.19410179058641    1.69599678810776    1.71490759250267
C         5.81989139700747    1.58068515095732    1.80158632265039
C         5.10303291146456    3.14685531681632   -0.65779226782760
C         5.36305861296944    4.40424772964653   -0.06301563127872
C         6.57688189848654    5.01965165662724   -0.25772731618406
C         7.56769540878872    4.40807269401937   -1.01482518595071
C         7.32510775703914    3.17498552274240   -1.60549170657653
C         6.10898117739522    2.55087384473511   -1.45023639370352
C         1.27118538330530    1.55998922761434   -2.74938648187476
C         0.36048029616703    0.57843656596921   -3.20626540411557
C         0.04294706546656    0.50268219978078   -4.54249541793039
C         0.58496611029671    1.40608935055007   -5.44884977767802
C         1.47023721158931    2.38619156982908   -5.01358745477213
C         1.83282174401440    2.46126646404251   -3.68999888606356
H         4.89584635516968   -0.02143658452925    3.42475283386784
H         4.31299203471146   -1.96740967680876    4.79512672011056
H         2.03898331132991   -2.20311307719110    5.72335532385071
H         0.34784125359820   -0.45639287136648    5.28822193212376
H         0.92675197606264    1.50655442641879    3.92873603315845
H         1.69978014187584    4.81595093240495    2.24960416322211
H         0.96620210512558    6.50243471847931    3.87975173578151
H         1.57459243128802    6.27427947907356    6.26268464027719
H         2.92661415906588    4.34928677947255    7.00799545914834
H         3.65717452438956    2.65089613832102    5.38415548668022
H         5.17830124386032    4.28929913066817    3.73035225065713
H         7.61783631356758    4.48899713657473    3.56428509981859
H         8.91777342290974    2.83406730084844    2.27838082144022
H         7.75770325824398    0.97685162330940    1.13906622321215
H         5.30722348741621    0.78647501814379    1.27372080833480
H         4.57528023495784    4.86747420812347    0.51167532513118
H         6.76204192795205    5.98315500876073    0.19341841094437
H         8.52325238191600    4.89207431326476   -1.14684178205842
H         8.09434181879096    2.70270533346236   -2.19864401616274
H         5.90330128546794    1.58867522487051   -1.89253509817357
H        -0.04683646767708   -0.11682807152405   -2.48876170790079
H        -0.64164854926152   -0.25811673127975   -4.88721600593704
H         0.31781247669596    1.34663400865402   -6.49298692892008
H         1.88515785024237    3.08774501872809   -5.72209179675388
H         2.51105867738425    3.21429608514115   -3.31755413404204

