40
CSD_code = ZARYIC | q = 0 | S = 0 | Stoichiometry = C16H19CuIN2P | MND = 4
I         4.46862502597850    2.70511693257644    1.17501941016596
Cu        6.37524386190699    4.25867109953486    0.81111998148381
P         8.19444345571655    3.13358426759555   -0.00215304937963
N         5.90244297273043    5.94281086646463   -0.15265089812462
N         7.04013907371511    5.53831157718558    2.24486553091595
C         4.65834968473722    7.28858102149843   -1.67428407338608
C         6.67525279752654    7.83718900882379    2.88914668915821
C         5.53668206791589    9.30284822817871    1.33670429395332
C         6.14926029992484    9.10943156500231    2.53131839058526
C         7.58669071104158    5.30618553681918    3.41746578777024
C         7.26103645657706    7.56171795796169    4.13585208420035
C         7.71085222986493    6.28842103493986    4.40137255337021
C         5.41150642839617    8.24529823801283    0.39284460491014
C         6.58276043012975    6.77078516061332    1.96761981792691
C         5.95925733838718    6.98138436440636    0.70009984597414
C         8.08381804972253    1.42226129558257    0.66981672239682
C         5.26324021085241    6.09120079718680   -1.29600304538866
C         7.91842457145581    2.80358752431821   -1.79445495525978
C         8.31589263500711    4.00642489128041   -2.64222100155059
C         8.28005048027030    1.41517290175169    2.18115872081288
C         4.74761322209436    8.37947134319737   -0.83819263149299
H         7.94241885841423    4.29908025239455    3.58914307164983
H         7.34469448805782    8.34864108850406    4.87137343992422
H         6.22938251290938    9.91337002978452    3.24849843213664
H         6.84886926888923    2.59271818897954   -1.90591378975229
H         4.14237803032041    7.35098420902365   -2.61921585503022
H         8.15647128249688    6.04042537748284    5.35167423496611
H         8.47145964811651    1.90934596298036   -2.09822738382917
H         8.06476040960046    3.84063693982927   -3.68830808511139
H         5.22855379281463    5.22378540615724   -1.94122542780454
H         9.38775621805634    4.18643951201174   -2.57015892068555
H         5.11476118458866   10.26400732771962    1.08127434106612
H         4.31126503341410    9.32958458613711   -1.10930745944698
H         7.08221080242549    1.05298785495657    0.42679717667599
H         9.59324176634444    3.23247594664901   -0.03964469925619
H         8.82081900198260    0.78502166504283    0.17151723687786
H         9.24272194280051    1.84980361172967    2.45119105067492
H         7.48853246049756    1.99055110288169    2.65850077323848
H         8.23773660838003    0.39861538766200    2.56595545908640
H         7.79948468708099    4.90296993719957   -2.30056837411717

