59
CSD_code = ZASFEG | q = 1 | S = 0 | Stoichiometry = C21H31HgN2O2S2(1+) | MND = 4
Hg        0.24893562369288   -0.22201766563860    6.25183937738258
S        -1.20610128595218    1.44715944519008    7.36661852427135
S         1.85634785940330   -1.80150237599641    7.32338311466465
N        -5.35798461519647    1.72244973864082    3.01384518874229
N         5.38019682433118    1.79643021212218   10.62335885584990
C        -2.42388148201704    1.49526614433493    6.13285857629093
C        -2.87866350015097    2.72469611203360    5.64960372919656
H        -2.46014957729125    3.63200669725691    6.05475984371283
C        -3.82594748894394    2.78248323745180    4.65280634035431
H        -4.13280399159148    3.75622184470072    4.30118610675924
C        -4.35502365250577    1.61267353459490    4.11016840028750
C        -3.94167014419750    0.38591848500143    4.61378604440825
H        -4.32658052214045   -0.54887477387745    4.24502132778483
C        -2.99959283568680    0.33121551628538    5.61866177515738
H        -2.69786397432768   -0.63442075980122    6.00880639580029
C        -6.54938370333370    2.42884819894442    3.52610356757449
H        -6.28511998796352    3.42782999158432    3.86366514261971
H        -6.96208901202929    1.87934611002779    4.37071358378219
H        -7.30442715839310    2.50803589738037    2.74504637776489
C        -4.76931888757210    2.47223062251768    1.88536303345051
H        -5.48709103329295    2.54327695673072    1.06931133405366
H        -3.87414990027188    1.95920906678685    1.53746880263564
H        -4.49030045582205    3.47617663821839    2.19368602751132
C        -5.78750628933142    0.40880175158848    2.50253026391915
H        -6.27384552509194   -0.16485247732566    3.28879176062814
H        -4.93106388547374   -0.14533376822402    2.12333431873192
H        -6.49799064957305    0.55363191491481    1.68954349762623
C         2.85733271708792   -0.73442545236915    8.24116881419683
C         2.94987634829352    0.64289010624098    8.00491877828263
H         2.38987180723522    1.09731456965708    7.19121212622897
C         3.76316342439041    1.43654062763689    8.77993657173680
H         3.78986081143064    2.49269328369411    8.55930022069945
C         4.52650383967760    0.88770639634971    9.80883828993741
C         4.46415185953919   -0.48290551660098   10.03792198522442
H         5.03836272261941   -0.96395693330886   10.81123250411314
C         3.64336897693582   -1.27509514384901    9.26605073626276
H         3.59416449781221   -2.33628568899905    9.44900426122656
C         6.34961282803765    2.47312366256875    9.73702997156028
H         6.95691399012972    1.72636897949904    9.22802180192212
H         6.99649079863079    3.12797006010253   10.31907424341693
H         5.83416952050375    3.06544232635968    8.98567676670176
C         4.51799832856303    2.79395968269041   11.29021717061163
H         3.97059404283652    3.38004858689513   10.55647039554737
H         5.12232500390359    3.46461322496941   11.89939148903907
H         3.79659681003112    2.28190810773690   11.92513578188737
C         6.13922831233858    1.08339230848997   11.66572027095214
H         5.45963468516837    0.58619961866507   12.35501604718926
H         6.74084889227050    1.79794554611406   12.22606425182624
H         6.80310711921408    0.34844835844678   11.21483360140513
C         0.30657559650075    0.77984583949690    3.79101499289947
C         0.32010754618792    1.45297038707209    2.42573807355669
H         0.90485650678787    2.36932632171726    2.49941354934156
H         0.82833601995616    0.77188952028229    1.74000113124254
C        -1.09515112798251    1.72870580493036    1.93556049894048
H        -1.66112915685302    0.79909713632684    1.94686926968325
H        -1.07671031007936    2.13124093962180    0.92466862769800
H        -1.58265597847270    2.44363828953723    2.59719183600261
O         1.17032918690750    1.11732179256044    4.62962589692099
O        -0.56616636814133   -0.08393903859101    4.03041873369048

