66
CSD_code = ZASGOR | q = 0 | S = 0 | Stoichiometry = C23H33HgN3O4S2 | MND = 4
Hg        2.82167654509935   17.06880570941528   12.75224376821496
S         0.77339546301992   18.31829302751185   13.48853837474096
S         4.57577907394610   17.24200135842135   14.59480284702750
O         1.93434549066838   14.81832532928224   13.09877419568755
O         2.59193524573982   12.77178311760726   13.60112720215664
O         4.13337926340220   17.91838704535792   10.82265575653596
O         5.96327634991165   17.63358336962740    9.62347656918851
N        -0.08254774189224   12.87370794483063   15.69998511005242
N         6.78392988058438   20.69135927352251   10.33197257848933
N         3.96862283556050   15.22813456447721   11.37283838629881
C         5.40767345813983   18.43333725918673   13.64422394498890
C         4.77994330281936   19.63365451219241   13.29602016460566
H         3.85014941982335   19.90878005781030   13.77605296781108
C         5.28710728792780   20.40583325634347   12.27896876211830
H         4.73484335220298   21.28598025985359   11.98550543105749
C         6.44266348633062   20.01352438467631   11.60702794883826
C         7.17576673764359   18.94016931148670   12.09282313422195
H         8.10904935672260   18.63501077001660   11.65178778332894
C         6.67204354097895   18.17287444729333   13.12259341784347
H         7.21423439183914   17.30382990575815   13.46337493549840
C         7.14497475426776   22.09359452879264   10.59488782422841
H         8.01312472046020   22.13010559294017   11.25223370439763
H         6.32045628573425   22.60980160851084   11.08157560937735
H         7.37916143850397   22.60181115732999    9.65973557337952
C         5.60796432737163   20.60496845970481    9.43911651493599
H         5.37127497244132   19.53982706166170    9.31874022333471
H         5.84278212795305   21.04950395399457    8.47360498031943
H         4.74795393989213   21.10590807864939    9.87080571141815
C         7.88921692259667   20.02153384601711    9.62704551689308
H         8.80501775865409   20.06810989603038   10.21207106402043
H         8.05687645420036   20.51679625624862    8.67182618354959
H         7.59447695050649   18.98424893946229    9.44870253158150
C         0.31561769916354   16.89389870745123   14.39277221477914
C         1.10676415724720   16.43612003430112   15.44569746560907
H         1.90235074652810   17.05866878584245   15.83071817866533
C         0.95921465444100   15.14885680068780   15.91790258306659
H         1.66513988288398   14.80661222401774   16.65486306337151
C        -0.02158882648702   14.32466562103958   15.38575958765452
C        -0.95489109303466   14.86371186206753   14.50494959420994
H        -1.79048962235127   14.28273022556947   14.14278977718668
C        -0.78910257079674   16.13845784666227   14.01164783440084
H        -1.46221561199006   16.52585483987020   13.26263802744704
C         1.13759550585879   12.39940646698770   16.37582580101670
H         1.99138898814997   12.60760953979929   15.72527155168780
H         1.06601175870751   11.32295291585055   16.52487089668510
H         1.26146134446796   12.87889978666816   17.34339373556977
C        -1.25468752983433   12.62009016849296   16.55395911532633
H        -1.16740018400520   13.19562039134410   17.47492799312698
H        -1.32184334796370   11.55977328554169   16.79730993288141
H        -2.16403728038204   12.92552987743516   16.04018506090742
C        -0.16834718006673   12.10280815214141   14.44202006403882
H         0.75336483756501   12.30189177392047   13.87350183256221
H        -1.03110854202989   12.39595750985163   13.85431404587100
H        -0.23302097411711   11.03978791854763   14.66820343289028
C         4.08627260881873   14.10848256574006   12.29302351075945
H         4.84381859427748   14.33476407863713   13.04966756892598
H         4.36921170632550   13.17468487062053   11.78463081123878
C         2.75818852020802   13.87624168046934   13.06394774903270
C         5.23977741295181   15.77424990715894   10.93285973104527
H         5.70942236386163   15.16366597244996   10.14689738192370
H         5.92727224451862   15.82809362486627   11.78240377283833
C         5.09209707110899   17.22806144092375   10.40710677979609
C         3.16405767666085   14.85237061319572   10.21729438909325
H         3.64696423372143   14.04501580976632    9.64611751580972
H         3.03733036158140   15.71816547151876    9.56849068826366
H         2.18386299895855   14.51501493911039   10.55049959929906

