88
CSD_code = ZASMUE | q = 0 | S = 0 | Stoichiometry = C46H33F3O3PRhS | MND = 8
Rh        5.37047299034403    2.73408483454018   11.89592057165844
P         6.39538320142106    4.09413654188814   13.25424518449811
S         4.16560548436004    1.88085335379036    9.46063918347386
F         2.91103516791191    0.92094218735380    7.28852350203624
F         3.89647405827138   -0.57920598560901    8.48507280489314
F         2.04941846572942    0.29974819522191    9.16607905639997
O         4.34633362263095    1.19795715802232   10.74526408889992
O         3.27729809297565    3.00799847964713    9.52053277389127
O         5.37573372534719    2.04240266604436    8.70341943058554
C         6.95858000887831    5.80175066981327   12.78179468658378
H         7.57531981783024    6.15094249982704   13.62362215304350
C         7.77995037755923    5.82256503244325   11.52359694602857
C         7.27447837580140    5.27319251390081   10.33976372411976
C         5.92669191014703    4.74147033692823   10.21533055054652
H         5.77179910734832    4.05912474445798    9.38569441156426
C         4.81937874263242    5.27038933160229   10.80569234147355
H         3.85676260003879    4.95246645888393   10.42121316350670
C         4.79494498542543    6.44035067410717   11.66674668188841
C         5.80829846777082    6.74591908583329   12.58301473218953
C         9.03008834627931    6.42702463598297   11.51907545600569
H         9.41192147146681    6.86483427768662   12.43071298710151
C         9.79477311472418    6.46944448897978   10.36961219501067
H        10.76421708055264    6.94375536275035   10.38465899231403
C         9.31892576161449    5.88675137071682    9.20507325965838
H         9.91907475620781    5.90284860612878    8.30799801377859
C         8.07784428093999    5.28763498082880    9.19576206538790
H         7.69587667931286    4.83770792514509    8.29181550633791
C         3.72858430133621    7.33395282565821   11.52888217941607
H         2.93729298708212    7.09228391093781   10.83546296129616
C         3.69360452147545    8.51835336528120   12.23297004454144
H         2.86820650652788    9.20124364469879   12.10067466910237
C         4.72002980470611    8.83091488798253   13.11048135775343
H         4.70052528416799    9.75744857888794   13.66399223215066
C         5.76438410871164    7.94339623326277   13.28450972793566
H         6.55798053091291    8.18098620095429   13.97944457932871
C         5.40317093417506    4.41861792337288   14.78558771572338
H         5.99087740566224    5.08616715819399   15.43161129038186
C         4.08645078101901    5.07052615310690   14.46270393205013
C         3.20518044371384    4.50825106775445   13.52849935815047
C         3.42038767794651    3.22630022138657   12.86229987392096
H         2.69340258703425    3.01419588221759   12.07893629903648
C         3.99168594260020    2.10456934387053   13.49131893708159
H         3.65117838960644    1.13456379852249   13.12905054175837
C         4.49738529515163    2.06025745361553   14.86186509094053
C         5.13216016368185    3.13059269109038   15.50838816953196
C         3.72512609378771    6.23193542050024   15.13283696346200
H         4.40157357111174    6.65192011275151   15.86405030277247
C         2.52414283886622    6.86416801475276   14.87684954252748
H         2.26451086695559    7.76648010797074   15.40890074413911
C         1.66599089925898    6.33829474912303   13.92487149990575
H         0.73055013053140    6.83082287021636   13.70674154580007
C         2.00819970977011    5.18059315092153   13.25984526481979
H         1.33526846706173    4.76470723217066   12.52457364115685
C         4.30009891428206    0.87822442519035   15.58395703359045
H         3.82827872812222    0.04137755370306   15.09069234204891
C         4.67398710065220    0.76704293584798   16.90590611988279
H         4.50212896802805   -0.15492352495881   17.44017768539663
C         5.26801083875486    1.84237292054222   17.54579572635305
H         5.56070194154372    1.76835199368158   18.58198715984382
C         5.49469216409433    3.00994901104134   16.84351872272582
H         5.96904068079302    3.84569865862881   17.33888104304791
C         7.97745258291604    3.35863167803811   13.88031818798862
H         8.35798020103737    4.00620216179224   14.68290711235515
C         7.79697818286518    1.96626828734320   14.41111646380345
C         7.25118100411677    0.94855763206356   13.61496797852494
C         6.81405883317343    1.12746684568712   12.23288741549923
H         6.29195650361054    0.25877234160323   11.83199156642812
C         7.39792791476373    1.98504771972768   11.28105715909425
H         7.25880957669752    1.70544505422275   10.23716235910480
C         8.63925585922667    2.71810099565221   11.52851578350833
C         8.97467628108656    3.30803278531258   12.75504661586434
C         8.22311163065359    1.67273253639015   15.70004718682707
H         8.65245438516214    2.45849563958064   16.30563579017090
C         8.10017417402175    0.40168208346554   16.22600852756813
H         8.43256126953625    0.19880909013153   17.23252280411012
C         7.54028722597936   -0.60421892963035   15.45557353652439
H         7.43318934850017   -1.60017774464852   15.85768225440919
C         7.11949863074734   -0.32806293147936   14.17263657841847
H         6.68836947871188   -1.11435372149183   13.57063531488951
C         9.58947090077627    2.74519420985598   10.50282490259018
H         9.33147204477078    2.31526626894066    9.54652955549984
C        10.84453694444360    3.28137651855351   10.69753072954671
H        11.56299857947895    3.27803950501674    9.89197342038892
C        11.18364592249779    3.81618224844635   11.92957389376654
H        12.16759543920731    4.22765942088512   12.09515848710467
C        10.24577170902138    3.83303640479802   12.94381252048781
H        10.50174275926424    4.26611466579548   13.90095245286276
C         3.20197234508034    0.56157183415478    8.54059264220958

