62
CSD_code = ZASVOH | q = 1 | S = 0 | Stoichiometry = C24H22CdN9O6(1+) | MND = 8
C         1.64453159598874    5.68732370450314    2.16610285408931
C         0.81142609371292    4.74607682342415    1.38045005750815
C        -0.06745857670125    3.82883340446143    1.95672264657122
H        -0.21073333874126    3.76597368653376    3.02356013261896
C        -0.79216848248236    2.99960973782274    1.11186552771218
H        -1.48794814399002    2.27342287055807    1.50934164268042
C         0.13181874876915    3.90444928263059   -0.75266695608747
H         0.17297014899299    3.89619779934241   -1.83311763772620
C         0.90267191246583    4.78638735987517   -0.01080256902677
H         1.56400108723134    5.49370891252495   -0.48578812798179
C         2.81724881866515    5.86013827392419    5.45042823151211
H         3.41905917733337    6.55731884677976    6.01995537256614
C         2.44768937540881    4.61678542021283    6.11045524688418
C         2.96070177474491    4.32883319349789    7.37750262388061
H         3.59994301656613    5.04002817150456    7.87531694412705
C         2.65010826910525    3.11400273172247    7.96418031245321
H         3.03807157340496    2.86327286583072    8.93954577566547
C         1.83842182417484    2.22364552073990    7.27787568710245
H         1.57671204081623    1.26635789251808    7.69806210337651
C         1.36847664898897    2.59336765300064    6.02491260262307
H         0.73391607166026    1.93630965679252    5.44549443655125
C         4.91652773864916    9.37141461423004    5.20509844809016
C         5.21160389733722    9.92390197769457    6.54798003706802
C         4.14354737857168   10.28552971938220    7.36918484029244
H         3.13108589776528   10.18047292534531    7.01314690462634
C         4.42203981879844   10.78543758554255    8.63281660458388
H         3.62887447980896   11.08698080185837    9.30274241652329
C         6.66155677448825   10.56026674489458    8.33348247969697
H         7.64415763462166   10.67793169164710    8.76908975073453
C         6.50641199655281   10.05785308153409    7.04828288374612
H         7.37178065330338    9.74416745515047    6.48523704122406
C         6.52249620910092    9.15025019695798    2.08962872241448
H         7.43084643442479    9.75446109487571    2.13759408062721
C         6.23979182666798    8.40962195859029    0.86839160730560
C         7.03306834737329    8.55108771052076   -0.26909470323761
H         7.86630304403361    9.23656171036373   -0.26878128125224
C         6.73084707796788    7.79859009785324   -1.39294155227469
H         7.32849453120774    7.88667815752726   -2.28714020562781
C         5.65324258716318    6.92903232597237   -1.34146594578980
H         5.39139930994567    6.31891398043304   -2.19074784631468
C         4.91503072646632    6.84963794201458   -0.16583043503648
H         4.07493958701623    6.17464983803688   -0.07432975232345
Cd        4.10214327982439    7.35999378071222    2.88084677464233
N        -0.69214421370416    3.03166575191380   -0.20382945965305
N         1.78175083826053    5.40883213010510    3.48096338685835
N         2.55111086792988    6.21972908989699    4.24707592118133
N         1.65626448148214    3.74941758062498    5.46053421355477
N         5.64937554301890   10.92100470474203    9.09902728927555
N         5.86615244596352    9.60422099113699    4.24133083506244
N         5.70316434043362    9.03686090608424    3.05289569805327
N         5.19567361635140    7.56915462730918    0.90615153223161
N         5.08371093206334    5.39576014353029    3.84640986885296
O         2.16934525859604    6.68001352332858    1.65688680835236
O         3.88810657671154    8.77049651808785    4.94528425957215
O         4.57796367547315    5.28407797879670    2.72403526498820
O         5.56857944805863    6.48779942587499    4.16880300278994
O         5.09549662007979    4.46992546636739    4.61019137530080
H         1.49561025386418    4.52076107906242    3.94725808658567
H         6.70855640992536   10.13935520810383    4.45524677321917
O         2.83036066708091    9.35561575401898    2.24293802210981
H         2.27094628175728    9.57420325228314    2.99685176047889
H         2.24732708946835    8.98012666931191    1.57205758420888

