44
CSD_code = ZASZIF | q = 0 | S = 0 | Stoichiometry = C16H23Cl2N2Rh | MND = 5
Rh        1.69585930640962    4.63302396982357    5.75775754038503
Cl        2.11602520304145    3.16983314783309    7.45443010770664
Cl        1.00064756759154    6.07329834127904    4.13186195184235
N         2.19237720724768    6.18006683210534    6.94172093502286
C         3.52272026711929    4.79278347661886    5.28378556717502
N         1.80286269763765    3.14094177938627    4.41399442470859
C         3.42943191007222    6.53598802363652    6.84036134022079
H         3.84248355436826    7.35533346183175    7.42316688509614
C         2.97420243668743    2.99581483322397    3.89047960484872
H         3.18053320586574    2.23357607367878    3.14371122898097
C         5.59856049113203    5.89809975785443    5.55613247746574
H         6.23235963857562    6.65064263395221    6.00190209122049
C         4.01000589590721    3.89769929447117    4.33740722002293
C         1.26744427136460    6.84648166756024    7.85330512839610
C         4.25323413798753    5.79418572616387    5.91468134849033
C         5.35883917116650    4.02718932794766    4.00044146984699
H         5.81132650389299    3.36883849089056    3.27344462792099
C         0.67234296104532    2.30238037315432    4.02806060709799
C         6.11858946904487    5.01780876849868    4.61323781430438
H         7.16075887414936    5.10762268219756    4.34417377830903
C         0.32262578793132    2.58351192465767    2.56153615153513
H         0.15115588862896    3.64924581202665    2.42426225812155
H        -0.57846836473494    2.04271667144251    2.28471278283387
H         1.12877510548337    2.27541327238506    1.89995978571510
C         1.73796385181488    6.62798173454257    9.29642447302703
H         1.85887556555471    5.56324976475166    9.48496785665608
H         1.00323512780084    7.02748366427133    9.99034164546884
H         2.68970124467290    7.12168569892181    9.47854970361874
C        -0.50268842389002    2.70319748324204    4.92764081483024
H        -0.27300170426169    2.46911426697755    5.96909894473581
H        -1.40232429953631    2.16202173145678    4.64469838426504
H        -0.70399304617345    3.77527810418891    4.82468960686111
C        -0.10316106442432    6.19078414391720    7.64949385629406
H        -0.45163248335817    6.36379147146806    6.62859681039428
H        -0.83419311360379    6.61135830974422    8.33570625358935
H        -0.03552331755670    5.11483699137605    7.84115880897590
C         1.18052094985335    8.33863629417215    7.51261100007761
H         2.11755685348883    8.84957993997438    7.72032666986380
H         0.39723785234280    8.80576337211365    8.10382981679319
H         0.94405278362547    8.46079251731517    6.45757322773095
C         1.00844256552694    0.82343641519573    4.25043692202161
H         1.77770534828390    0.48044967287544    3.56295979674876
H         0.11887179214953    0.21823524586823    4.09714092865911
H         1.36096033007497    0.67652683500750    5.26932735212108

