31
CSD_code = ZATJOW | q = 0 | S = 0 | Stoichiometry = C15H13CoN2 | MND = 7
Co        6.63228164411210   11.09702746479947    7.34729290143656
N         5.86980925019633    9.75737401743222    8.30305273687256
H         5.37443567142631    9.79459642884173    9.19321370966360
N         7.05325804637396    9.76055595505780    6.19978461905407
H         7.55719479620606    9.80197828368190    5.31452917420894
C         6.31233514865971   12.76366851033421    8.53729824881166
H         5.85037908671009   12.86343274648797    9.50681973230463
C         7.69887990859585   12.61620816202085    8.29747072566075
H         8.47121953328628   12.58022378327821    9.04918761563173
C         7.90230516146312   12.67346055087919    6.89662180387745
H         8.85927886522048   12.69187116474557    6.39954981652488
C         6.64703488233814   12.87447488092824    6.27753661909924
H         6.48586079214412   13.07136725077746    5.22948293796487
C         5.66145149871839   12.93914534477206    7.29362432758185
H         4.62230368435222   13.19088249348078    7.15321766964640
C         5.94871067733512    8.52044948595885    7.78613978488414
C         5.45197065450596    7.33281204352478    8.30498006679328
H         4.92095420686716    7.32711479355695    9.24702839444133
C         5.63874318603207    6.13813905901527    7.60520175645963
C         5.14578204898264    4.90565619417875    8.09972649233039
H         4.61573252979105    4.90873375844469    9.04189783677824
C         5.32993757031116    3.74371212229972    7.41276667043766
H         4.94791390155980    2.81107032498111    7.80184447521659
C         6.02184209142419    3.74564880207287    6.18489003248995
H         6.15828546050255    2.81446765167860    5.65439111179352
C         6.51224155352821    4.90957882886020    5.67432706254381
H         7.04355518936948    4.91585861658740    4.73287576047709
C         6.34272554286247    6.14008928627278    6.35522147421240
C         6.84230931690956    7.33679987211105    5.83558875584371
H         7.37244798840576    7.33443561622913    4.89303431222314
C         6.65432011180968    8.52226650671019    6.53240337473592

