65
CSD_code = ZATKOU | q = 0 | S = 0 | Stoichiometry = C22H36HgN2S2Si2 | MND = 2
Hg        6.72424994944103    0.00001310204520    7.08371531801575
S         5.50450429707832    1.03813194915919    5.18497318922614
Si       10.85623962854052    0.88898083095349    5.67998848105794
N         8.12604638662061    1.16429130650783    5.18829601766078
C         7.02617861631197    1.51241526650820    4.51690213497256
C         7.07090902637875    2.22431857771364    3.31671342639741
C         8.30543461236819    2.57279859957616    2.81583295407356
C         9.44513095245996    2.19848171422383    3.51503253406964
C         9.32828558739957    1.49131094009313    4.70427451564152
C        10.56844064200950    1.26369635364991    7.52131351464946
C        12.39039364523521    1.84155472097842    5.06530697624613
C        11.03275116062456   -1.00090732268054    5.30978905006175
C        11.00033216432047   -1.25166895664956    3.79941760709819
C         9.88414775158221   -1.77377885276122    5.95824765546106
C        12.35270931474323   -1.53339293628027    5.87081378871070
H         6.15104251463569    2.48034777794050    2.81678530587913
H         8.38173392696227    3.12511371325677    1.89022510978854
H        10.42430158182159    2.45121799920551    3.14375155317635
H         9.56893316866196    0.95799688245703    7.82863307277116
H        10.66387782843194    2.32651035383632    7.72327374767820
H        11.27704536769732    0.74176714649740    8.15607702899803
H        12.66442512612204    1.57393986407234    4.04991809177031
H        13.24561702989349    1.63200300378610    5.69912881896624
H        12.22257415902314    2.91370652325574    5.09169497214260
H        10.06152029039328   -0.90744502582670    3.36959529053569
H        11.09887083312220   -2.31663261384935    3.59067995604633
H        11.81534256978393   -0.73390720341904    3.29846750146477
H         8.91488164078955   -1.40883294000897    5.59978734156542
H         9.91370821854655   -1.67406410910493    7.04099383689379
H         9.95134230256831   -2.83377581101756    5.71358638491136
H        13.20074722547616   -1.03123130801934    5.41177819053504
H        12.44372498486864   -2.60135265211522    5.67532129306745
H        12.40386135264125   -1.38171044553483    6.94608027373642
S         7.94403499885389   -1.03810139858970    8.98242488212406
C         6.42236663039222   -1.51243194019027    9.65048031918638
N         5.32249134251619   -1.16428315338747    8.97911268643695
C         6.37764711140807   -2.22431274851315   10.85068251993334
C         4.12025767129282   -1.49131471346233    9.46314008238793
C         5.14312303986541   -2.57274646812666   11.35160234936683
H         7.29752051084851   -2.48038123530467   11.35057852358411
Si        2.59228705872877   -0.88898094501234    8.48745828817958
C         4.00342138097878   -2.19846258483505   10.65239531627480
H         5.06683263766173   -3.12512378724672   12.27717467534910
C         2.88009404233867   -1.26365908255550    6.64612202721016
C         1.05815271624013   -1.84159410026405    9.10211840623923
C         2.41576615529883    1.00090367692310    8.85766220851436
H         3.02425397014972   -2.45120022223581   11.02368504589740
H         3.87959286624409   -0.95794214822438    6.33878976550663
H         2.78466761454130   -2.32646730880265    6.44412946344534
H         2.17147788834341   -0.74173207751657    6.01137128864264
H         0.78412576730040   -1.57397652961080   10.11750776517348
H         0.20293047845260   -1.63204501946124    8.46829265109217
H         1.22599333636873   -2.91374448153936    9.07572700970600
C         2.44822263837511    1.25164787465859   10.36803361430376
C         3.56432640388701    1.77381022170075    8.20916875962636
C         1.09577614310687    1.53337016335450    8.29669574647048
H         3.38707264831356    0.90747100941690   10.79780828332840
H         2.34963541434364    2.31660448946055   10.57678648374297
H         1.63326372008151    0.73383338532230   10.86901452062289
H         4.53360542928340    1.40886663282878    8.56759225135152
H         3.53473780702712    1.67409310921016    7.12642583757504
H         3.49712736859910    2.83380675381054    8.45383737782710
H         0.24776986925590    1.03118401828212    8.75576127670637
H         1.00473738944980    2.60132776217263    8.49219361773099
H         1.04458409389813    1.38168439927367    7.22143202320869

