169
CSD_code = ZATPUH | q = -1 | S = 0 | Stoichiometry = C64H98O6Y(1-) | MND = 6
Y         0.54308787242500    6.65664138696392   13.87107923845867
O         2.20989250470758    5.49708182118413   14.13729548435949
O         0.99472204637364    8.17964484217248   15.21894772332435
O         0.25544763932900    8.01011336424065   12.35268451368233
O        -0.55553210204199    5.04620766343530   13.13218931090821
O        -0.24283629270218    5.92492192101867   16.27119748784819
O        -1.98209254788839    6.95430194391571   14.51065628032090
C         3.51562390812614    5.59177326856649   14.25614995022554
C         4.32358914635801    4.43933410692455   14.46653847013546
C         5.67478572470496    4.59706982670162   14.72823573869042
H         6.26579568116683    3.71782748319642   14.91300192683394
C         6.29989122750660    5.83543813321601   14.76620183139374
C         5.52422667938783    6.94128801879820   14.44890778393322
H         5.98202830938373    7.91787330500033   14.41997414705913
C         4.17653106134704    6.84374573361173   14.16833361621813
C         3.41227362450621    8.07248148892945   13.71159834857647
H         2.41372718112986    7.73584618228558   13.37331669726465
C         3.17619867357301    9.06783070566677   14.82803299415102
C         4.15759116050383    9.97152183815738   15.17892953314039
H         5.09563935054812    9.94632672830358   14.64568451233129
C         3.98107143754347   10.91252953792982   16.18447063508946
C         2.73973884200339   10.94489125197415   16.80204953364155
H         2.56414699727805   11.68262814544806   17.56498891305425
C         1.71285862822324   10.07405526092044   16.47992151152870
C         1.92059228726053    9.06611743564533   15.49452406593651
C         4.07784066628697    8.70179589504576   12.48073366495257
H         5.10490537948600    8.99980528891996   12.67585031638608
H         3.51760940231245    9.57902547142877   12.16300859723287
H         4.09075597468991    7.97979462471524   11.66536124221133
C         3.70259927514331    3.04677024674365   14.37671304816751
C         4.72263792681768    1.91349398287093   14.54578959965823
H         5.50311780694016    1.96882475277348   13.78983420081282
H         4.21263502177603    0.95740035634334   14.43168161657179
H         5.17903896104099    1.93306414429472   15.53377791775576
C         2.63536233631074    2.88879953804402   15.46476582936820
H         3.06710303023578    3.05850554739885   16.45078263826364
H         2.20785406761743    1.88712237178996   15.43704252270284
H         1.84784807676195    3.61311326251590   15.28840996645814
C         3.04608609246076    2.88264895797592   12.99909324084222
H         2.26814881366682    3.62753890200817   12.86274553162291
H         2.59152089089256    1.89736310271499   12.90382745356849
H         3.78859885237623    3.00023903036436   12.21120059747737
C         7.77315144409581    6.02301313348397   15.10154691293854
C         8.48615388103592    4.70407737419620   15.41483210372944
H         9.52889170630285    4.90095273907841   15.66332395364926
H         8.46403373502405    4.03625946396142   14.55662081348704
H         8.02444342849598    4.20523073883095   16.26384506172241
C         7.89413417670154    6.93187760246033   16.33315525511985
H         7.41949456953714    7.89268693115212   16.15757431782171
H         8.94100166584913    7.10386065565770   16.58303176255329
H         7.40405911478302    6.46842185217288   17.18697136090235
C         8.48919260684207    6.67441681782543   13.90910458958715
H         8.07077079057719    7.65227055712305   13.68896036334250
H         8.37929159464582    6.05237628042279   13.02303116915894
H         9.55153152028952    6.79627047289305   14.11973263488638
C         5.12073715944801   11.85647806949090   16.54347353537361
C         6.35621926751399   11.03376846453149   16.93753132216311
H         6.11664444064957   10.37486382025241   17.76957829324020
H         7.17494080132522   11.68866958481022   17.23542474540635
H         6.69721602471194   10.41984773270749   16.10909078886457
C         4.78064299218534   12.78099724219562   17.71665596318450
H         3.94129838979348   13.42814822248742   17.47284759319847
H         5.63800166596780   13.41336413686219   17.94681140850620
H         4.53671537302964   12.20387760455252   18.60569657527576
C         5.45507948529935   12.73384306791224   15.32832844321312
H         5.74844902423044   12.12423505554448   14.47829711642199
H         6.27152358689283   13.41753198627126   15.56076317045851
H         4.58359682059508   13.31776633227882   15.03933157670571
C         0.35756524833612   10.18318269724583   17.17461848433646
C         0.25494075278650   11.35469943003400   18.15955186370839
H         0.42840988901618   12.30598578735913   17.66099227528518
H         0.96222440521694   11.24799121968935   18.97955193039942
H        -0.74881988985760   11.37621693848917   18.58490840724817
C        -0.72603079354329   10.37971840461288   16.10611398504012
H        -0.55912007634613   11.31552036146712   15.57584834806639
H        -1.71851801926202   10.41038806405226   16.55936015065419
H        -0.67883537246330    9.56594089320324   15.38754200657216
C         0.10126008537797    8.88738602465519   17.95387621639591
H        -0.88270548259955    8.90426525740360   18.42638080630173
H         0.85663340050423    8.76331634999582   18.72889136311065
H         0.16470197927155    8.05108947065358   17.26659224837917
C        -0.12086589963136    7.92593284319104   11.09639377409568
C        -0.73067553017545    9.02375389718157   10.42432027449183
C        -1.26217443350158    8.82236634334183    9.16367824375645
H        -1.75908367138870    9.64492355705475    8.67478018446020
C        -1.19270860671916    7.60751243901384    8.48691863991875
C        -0.46122404014108    6.59626310731380    9.08678403575002
H        -0.31136594105640    5.65239356670956    8.58824004700027
C         0.09592861052040    6.74886968536114   10.34276098702015
C         1.00258221752470    5.65743052612029   10.88007999436964
H         1.32457821484463    5.94931195946064   11.89925411901166
C         0.26314128199772    4.34759121897249   11.00980622624600
C         0.30498577382475    3.39710566607015   10.01246933955180
H         0.90329724454559    3.59326253749907    9.13568356756131
C        -0.39149397632150    2.19847585162940   10.10254099934325
C        -1.12855039628651    1.98310342415326   11.25710142988294
H        -1.67285853616562    1.06024982497077   11.35455876560713
C        -1.19574834788423    2.89885735106599   12.29434376075460
C        -0.49650507854493    4.13364031209420   12.19117790905636
C         2.27850110043122    5.58564872428038   10.03408343415491
H         2.05248141855673    5.44238095353259    8.97944657638116
H         2.91396965466752    4.77155566009761   10.37754794645819
H         2.82675847185623    6.52194212725428   10.12984979917873
C        -0.73381816960393   10.40290096018865   11.07902270999007
C         0.71037576865329   10.76813078021871   11.45010175967118
H         1.09442127641440   10.05137060067193   12.17023075741709
H         0.75154723462065   11.76187855507247   11.89474883447336
H         1.34333227844931   10.75386916640580   10.56388270526447
C        -1.58351681167954   10.38047699587295   12.35340430740740
H        -2.61704179690943   10.13117011272010   12.11500460584991
H        -1.56215133373837   11.35445028488622   12.84109914068780
H        -1.17894947064481    9.63916965109853   13.03612864257511
C        -1.27696328475782   11.50452611178700   10.16059047138911
H        -0.70474951268344   11.56214899632610    9.23694388956404
H        -1.19575229177473   12.46497236638688   10.66852353797574
H        -2.32634888916367   11.34188354075432    9.92110484515204
C        -1.86543181593544    7.45850255042410    7.12960348950604
C        -1.24826442424313    8.45474642021838    6.13704509902065
H        -1.70110745768209    8.34500533580455    5.15190026043569
H        -0.17826846524946    8.27789376050201    6.04941258025531
H        -1.39540833678520    9.47888295557564    6.46912857660078
C        -3.36750878279048    7.74207028023431    7.27517424511915
H        -3.54155102100826    8.74760198779458    7.64853997338791
H        -3.81093158227405    7.03834841641582    7.97650365588836
H        -3.87149480525221    7.64074849024646    6.31420400188695
C        -1.70641428219198    6.04956718603998    6.55069137519171
H        -2.11157721087627    5.30393540565603    7.23025381149815
H        -0.65955506716355    5.82284352382864    6.36334528823903
H        -2.24176749801881    5.97726246181954    5.60418257031198
C        -0.31391542370736    1.19875699777445    8.95672405280995
C         1.14648488803438    0.76692589373311    8.75957764139693
H         1.52649009280602    0.31254647246922    9.67222889319970
H         1.77618834736119    1.61921577146202    8.52121141988319
H         1.22668068512651    0.04214970506680    7.94943240608153
C        -1.14867437335190   -0.06116920292683    9.20616021538377
H        -2.19979062182837    0.18791552604445    9.33316090024993
H        -0.80027913735128   -0.58933836691436   10.09073471758940
H        -1.06083075630513   -0.73461089904846    8.35365456436880
C        -0.83269350930743    1.86104469191968    7.67171796371004
H        -0.79916758132768    1.16038461204089    6.83754972451754
H        -0.23569571562167    2.73019695807819    7.41129819304940
H        -1.86157908324689    2.18736881717102    7.81001453538122
C        -2.00687675062980    2.59416477542702   13.55075144429613
C        -2.71331780666148    1.23304375007120   13.52303527884992
H        -1.99841301295211    0.41768225943442   13.43532652100976
H        -3.42442770647531    1.17312426366580   12.70161891469523
H        -3.26407218259631    1.09692121277763   14.45428378819967
C        -1.05146576407972    2.60258428096061   14.75042326962718
H        -1.59541009918932    2.44444957851448   15.68378062216527
H        -0.52904260007991    3.55509290996538   14.78581163464672
H        -0.31364660783367    1.81006170426072   14.64192586257981
C        -3.07975474490524    3.67708617267741   13.72377408053955
H        -3.76786203490300    3.65818926523370   12.87970893826063
H        -2.59603195542138    4.64756605608833   13.75760938771477
H        -3.65003864263852    3.51674535079798   14.64077267358810
C         0.58801639316567    5.25346220825025   17.19552055817571
H         0.44445165227060    5.65563254461465   18.20759451943673
H         1.61226270299512    5.43349697705208   16.87324572336744
H         0.38594424269436    4.17599770363247   17.20520328467345
C        -1.61590175320512    5.80773239312373   16.58248266547815
H        -1.98955629261466    4.82825392305389   16.25401495987844
H        -1.77068893206379    5.90913884160552   17.66831321987431
C        -2.38167798272327    6.92201213725027   15.86641136306667
H        -2.16276415108433    7.88917211451896   16.33894581453400
H        -3.45996104036230    6.71564735046810   15.94321303366023
C        -2.97209050981782    7.49159378057343   13.65854773087685
H        -3.88353113902736    6.87912850534203   13.68902407140394
H        -2.55698441409203    7.47540552327590   12.65198202487294
H        -3.22153346550211    8.52089525899579   13.94080504948787

