93
CSD_code = ZATROD | q = 0 | S = 0 | Stoichiometry = C30H44N4O8P2PdS4 | MND = 4
Pd        6.11197252914229   -4.94568352628346   11.85026960984027
S         3.75620528322388   -5.05486573851690   12.13785329474120
P         3.91813772848693   -3.06532518221335   11.88785872409848
N         3.90243381810614   -2.52068210347467   10.36102976797877
C         4.76425391395459   -2.89140931599480    9.45212296851830
S         6.12384688471646   -3.88622247551550    9.71536356526179
O         2.65804981440285   -2.36832849873308   12.55293381374716
C         1.34413703614999   -2.60419831072672   12.02876303101228
H         1.44524143045678   -3.06649880949622   11.03887504296884
C         0.65736683287303   -1.25241843650516   11.89806492112742
H         0.55546753036988   -0.79466558319335   12.87896673062797
H        -0.32724079906276   -1.37864108128988   11.45665096504575
H         1.25101297736679   -0.59481179032605   11.26856814808427
C         0.59736455792851   -3.54403621403859   12.96402565829077
H         1.12602364222468   -4.49123827921048   13.03851629374687
H        -0.40409045553852   -3.72562816033447   12.58403774953501
H         0.53012386577967   -3.10177478528597   13.95526082533073
O         5.11434045848945   -2.37278036331167   12.65418167146113
C         5.38735797117006   -2.60851740300886   14.05721207964776
H         4.97370105463010   -3.59174706659067   14.33602929236644
C         4.72851004066337   -1.51635199961983   14.88163065847124
H         5.11119578530192   -0.54432752483650   14.57920322827657
H         4.94376740466268   -1.67583353546081   15.93479142230635
H         3.65265802834535   -1.53143059151013   14.72883462208654
C         6.90294810385217   -2.62528991964869   14.19604742941172
H         7.32667869401801   -3.33795922096396   13.47041548165331
H         7.18253382773620   -2.93210890020871   15.20007781725904
H         7.30891512631553   -1.63854547445515   13.98516759417009
N         4.66304842218510   -2.47982035081384    8.16674872088154
H         5.38580675961167   -2.84545684819443    7.53720771644130
C         3.76628344310022   -1.63233397851178    7.55455406356293
C         2.72257992548358   -1.01366571548928    8.24863484476468
H         2.62507930043177   -1.20895883858695    9.30209496445299
C         1.84283163510215   -0.17118359632232    7.60407943210201
H         1.04472081423986    0.29271938523034    8.16474916959018
C         1.97528848492136    0.08417992808434    6.24537043931114
H         1.28426392579362    0.74359321835118    5.74355260488047
C         2.99979753760042   -0.51137442399805    5.54324448373553
H         3.11800124064609   -0.32158426718489    4.48838072321259
C         3.90565669751269   -1.37048931329096    6.17061435331454
C         4.98489082080813   -1.97868503632445    5.37425033068529
O         5.80996978350892   -2.77111021882959    5.79016081599953
O         4.98611767431566   -1.57507243395036    4.09677976039610
C         6.00680367407140   -2.12270321335321    3.27670745438573
H         6.99152278939305   -1.86876118208565    3.67504447439472
H         5.86832815305344   -1.68693051070922    2.29058475105274
H         5.91731695903578   -3.21035085376916    3.23294737148492
S         8.46785155388239   -4.83726834211091   11.56317236522627
P         8.30484004627342   -6.82689383126899   11.81195664337381
N         8.32023458682549   -7.37246870473282   13.33845418587265
C         7.45921597154634   -7.00107209597896   14.24786565519598
S         6.10063918732243   -6.00460360262634   13.98562667382169
O         9.56455242455367   -7.52402927358602   11.14636313078970
C        10.87882220154004   -7.28793331592091   11.66959306277191
H        10.77839970405485   -6.82459804939079   12.65907787430816
C        11.56536589344370   -8.63973668632605   11.80125657097525
H        11.66639512409922   -9.09858517226203   10.82075616070724
H        12.55034170236823   -8.51323628160954   12.24178986646248
H        10.97206449897776   -9.29652311523065   12.43195649553206
C        11.62521589067903   -6.34921451568205   10.73286438021325
H        11.09672924236627   -5.40196395621092   10.65767280879691
H        12.62694241875365   -6.16742497947701   11.11205033944739
H        11.69176882908393   -6.79256135876877    9.74205489870590
O         7.10831087903109   -7.51859285227841   11.04533418954527
C         6.83563126091695   -7.28250765441082    9.64232343934805
H         7.24973136388813   -6.29940115975970    9.36373533134989
C         7.49412862208354   -8.37484684968478    8.81782908948623
H         7.11116060797399   -9.34677790953113    9.12022972767235
H         7.27884481088574   -8.21522850321071    7.76469499669400
H         8.57000118200096   -8.36010229701541    8.97054695711953
C         5.32005752596275   -7.26506760789113    9.50337807186618
H         4.89656996442188   -6.55223493443402   10.22899036867417
H         5.04071548551393   -6.95811124550522    8.49932241026405
H         4.91366037936583   -8.25166298415077    9.71416447292538
N         7.56047416480930   -7.41322525579782   15.53305302526222
H         6.83901540368367   -7.04616332826624   16.16325815871557
C         8.45617927185036   -8.26240605536688   16.14446492994898
C         9.49720805988744   -8.88417973364124   15.44913955758143
H         9.59352575839301   -8.68973904258315   14.39540911009342
C        10.37575209861492   -9.72858096418147   16.09282605192812
H        11.17171759948832  -10.19498024662411   15.53119106066375
C        10.24474824484555   -9.98277582928621   17.45189279178234
H        10.93478339859908  -10.64375933855563   17.95300555000416
C         9.22294873229991   -9.38406171217468   18.15527683936769
H         9.10592870822390   -9.57287567015731   19.21045140886598
C         8.31834810836233   -8.52295830540080   17.52880702541041
C         7.24208455102903   -7.91127057170550   18.32650467178307
O         6.41763084030390   -7.11796614251110   17.91102730465111
O         7.24268783282454   -8.31284861166018   19.60462174324155
C         6.22477907557013   -7.76179902900612   20.42586104248750
H         5.23873219683121   -8.01454618177070   20.03003121916640
H         6.36448084584534   -8.19606839373646   21.41248290185957
H         6.31646262415893   -6.67423976804871   20.46747655831947

