36
CSD_code = ZATSAQ | q = 1 | S = 0 | Stoichiometry = C17H14N4Rh(1+) | MND = 4
Rh        3.00120306067517    2.23537914820044    4.85179211141043
N         2.84758410249977    2.21621293739804    6.85374288311110
N         2.82835134097929    4.06175797670183    5.11673703563068
N         3.08013168959330    2.80793923099880    2.92834182077760
N         3.20716879916372    0.38929380330921    4.58632740176084
C         2.84826755346962    1.18314997141929    7.69347438069408
C         2.71911199606218    1.32305501268943    9.06510924990102
C         2.58348930029343    2.59515570066733    9.60009005856961
C         2.58033989266474    3.67805147076181    8.73806063450376
C         2.71230366772849    3.46553505170671    7.36977474504447
C         2.71242595982172    4.53538464799657    6.36940261190236
C         2.60809512823050    5.90352352747908    6.59867152392887
C         2.62582850952547    6.76673200081189    5.51248406946873
C         2.74433559790868    6.26086660013100    4.22591739762770
C         2.84527801659480    4.88411846414382    4.05359375186117
C         2.97663487572290    4.15536038455877    2.78986550694638
C         2.99133760266334    4.76226087853129    1.53838541494553
C         3.11342627160303    3.98073912856052    0.40257286861500
C         3.21868602059747    2.60624496714793    0.55252014736987
C         3.19774451010543    2.06758939887097    1.82812098599810
C         3.36146967241559   -0.74321646323683    4.42498569070679
C         3.55171806699871   -2.14379009458902    4.22284941065602
H         2.95638650552763    0.20110088300537    7.25296376998006
H         2.72494776799503    0.45143551641721    9.69882762584101
H         2.48139424228635    2.74087850228111   10.66371687414216
H         2.47457163167127    4.67928494118443    9.12193685925652
H         2.51716795778138    6.29260429250990    7.59892911438134
H         2.54816433768101    7.83080046014231    5.66829609933188
H         2.75975567919824    6.92791754960654    3.38033681140034
H         2.90580754642190    5.83317668384438    1.45583933867118
H         3.12516412906272    4.43374862784646   -0.57599869318509
H         3.31515894770245    1.95957822629944   -0.30413829913079
H         3.27888912917847    0.99822016972652    1.96999863604242
H         4.54528230624524   -2.32320985816478    3.81117621246578
H         2.80401252336943   -2.52143728031832    3.52501860893296
H         3.45716566056162   -2.67784245863937    5.16857734043986

