59
CSD_code = ZATTIA | q = 0 | S = 0 | Stoichiometry = C24H26N4NiO4 | MND = 5
C         7.41808033970122    7.60401110847085   -0.61602034174157
H         7.87353304888281    6.81898607852270   -1.21802646744255
H         7.34820769143372    8.52184253154139   -1.21234761392249
H         8.04553074724293    7.79506672929565    0.26225243251380
C         5.36986419446959    7.89523441262584    0.54823762575568
C         5.68791810527908    9.14777471671004    1.00160000326799
H         6.62918692799628    9.60594728792736    0.73804543521384
C         4.80209356295152    9.87028600669426    1.82036223513911
H         5.08790314714215   10.85447385077619    2.15911672149530
C         3.60139446464083    9.33135098392756    2.17246187890833
H         2.91209077393497    9.88228372916328    2.79696170276811
C         3.23822083904734    8.03840623337884    1.73653986414331
C         4.11827087089816    7.27403449329141    0.91773868396201
C         1.96686433803726    7.51246168863251    2.06332017891345
H         1.29530441352852    8.22801284707161    2.55039812676981
C         0.10016563115203    6.12963614316903    2.11631939390481
H        -0.43781963913081    6.03780502661723    1.16480296082489
H        -0.30076205715429    7.00203257240049    2.65378742172248
C        -0.15034915686755    4.87375525956384    2.94348032176748
H         0.50297227808601    4.87376930621473    3.81889180172894
H        -1.18731555792145    4.87374062712978    3.28469371299427
C         1.48356684068514    6.00872205288379   -1.67279494556031
H         1.39930594455292    6.92361628485837   -1.10021209780321
C         1.66649991507546    6.06512942749611   -3.03718938828841
H         1.73610730315190    7.01623989528452   -3.54354061289126
C         1.77903790407203    4.87376185629897   -3.76033583935577
N         1.50474776886719    6.32723873846738    1.82195497203163
N         1.39945733260100    4.87372962255636   -0.97783689040150
N         1.91539674949073    4.87365241185830   -5.11956231354887
O         6.15374148887608    7.12121748579888   -0.25555152740185
O         3.84461601209267    6.11425977783330    0.48727276803520
Ni        2.55344931503540    4.87377185125912    1.05793335685467
H         2.21514584890099    5.72719041084793   -5.55973197570819
C         7.41812209732639    2.14347591627973   -0.61595320339715
H         7.87360419421768    2.92850826644722   -1.21792736241781
H         7.34817054011618    1.22568351304917   -1.21233127326371
H         8.04559074200693    1.95232945525563    0.26228686970807
C         5.36991059854201    1.85229126774706    0.54831852915202
C         5.68792761058274    0.59972179845051    1.00163311033784
H         6.62918462130557    0.14152954582469    0.73806720225647
C         4.80207059319528   -0.12280536754749    1.82034675105701
H         5.08785490054818   -1.10701116287878    2.15907152057107
C         3.60137510494030    0.41614035316619    2.17244016101669
H         2.91204246774465   -0.13480942022990    2.79689248370433
C         3.23823901105790    1.70911436057252    1.73656394208216
C         4.11831764644592    2.47350421865553    0.91781243077686
C         1.96689109660439    2.23508246284140    2.06333516430792
H         1.29531561870549    1.51953989351422    2.55040471144624
C         0.10019749740911    3.61788994207521    2.11629859488261
H        -0.43777110450827    3.70970653112086    1.16477313379365
H        -0.30071095916292    2.74547543822365    2.65375178325762
N         1.50478446446985    3.42030775902567    1.82194070058501
O         6.15382541099897    2.62632734548602   -0.25541435196518
O         3.84468229354235    3.63330583578015    0.48738514416862
C         1.48543370873871    3.73874357108493   -1.67261861387892
H         1.39763959673756    2.82386479528552   -1.10044827962291
C         1.66726692531058    3.68238600650990   -3.03711249610236
H         1.73561470919922    2.73131723289137   -3.54363526938697
H         2.21629322717771    4.02053899279592   -5.55940296772215

