65
CSD_code = ZATTEW | q = 0 | S = 0 | Stoichiometry = C26H30N4NiO4 | MND = 5
C         0.52297995612472    8.62193798876513   11.80873320048943
H        -0.30841015756865    8.01588493829867   12.16600595553673
H         1.30561058795209    8.64884241784126   12.57563699583991
H         0.17095596685696    9.64332984155840   11.62026682219095
C         2.03922591336369    8.54061112849468    9.98157035288754
C         2.70369777922099    9.68001853558333   10.35128763192883
H         2.40030533474253   10.23530704872630   11.22582451227744
C         3.79107285973013   10.15899143470640    9.60124113820671
H         4.29198018220276   11.05938989365670    9.92269317161738
C         4.19980016830761    9.49192866319553    8.48493905224406
H         5.03271411272680    9.85682364508783    7.90063190833174
C         3.53664633253490    8.31995010646196    8.06398939725579
C         2.43837613309173    7.80214095763185    8.80672056738010
C         3.99574102755832    7.61357668588617    6.92763791816977
H         4.94131522270974    7.98086967028808    6.51646188703104
C         4.18776756920833    6.00505303186241    5.25976641772983
H         5.23556925954772    6.33466100696745    5.29948728839757
H         3.76235625774253    6.35527165546377    4.31042347197001
C         4.15577347401285    4.46519769965627    5.27433510444528
C         5.28130394797153    3.93969568389343    4.37929182118546
H         5.22292312872821    2.85722474352595    4.29169190212424
H         5.21603360076905    4.36861916380142    3.38127232661075
H         6.25092254002663    4.19470732969849    4.79995175434317
C         4.33006509843433    3.92928921534221    6.69782146430645
H         4.39646627468515    2.84365494562040    6.68495873930689
H         5.23474216745029    4.33034960712185    7.14931676039140
H         3.47025488352655    4.21694621461332    7.32311033317626
C         2.81469973752119    3.99955000489074    4.69845163302242
H         2.77798739884243    4.26460300560166    3.63184444766663
H         2.76450977071140    2.90458268866977    4.76967807627953
C         0.52010511616829    4.19008844100428    4.89676061344454
H         0.52384349018193    3.57665149387265    3.98974595069261
C        -0.76153883778585    4.42539742175585    5.45199817993828
C        -1.92529018853947    4.15882647235435    4.70415685430183
H        -1.82084980328794    3.84589638250159    3.67456443843848
C        -3.16021837934126    4.31610193167568    5.26110170464847
H        -4.05514273284568    4.12906468426843    4.68618765737760
C        -3.28257265515389    4.71049750780929    6.60436186647792
H        -4.27425981692518    4.81757768906819    7.01850177389036
C        -2.17482390470690    4.95237513382356    7.37333095487132
C        -0.84772063078746    4.84750085678565    6.81139922658467
C        -3.42515717388058    5.50114956125281    9.31601942714162
H        -3.19507988872497    5.80506374628777   10.33600046574704
H        -4.03207974377677    6.27929450677806    8.83692463973722
H        -3.99719458532527    4.56612715705429    9.33797209453589
C         0.10485247029497    7.33964977721806    4.58753346429120
H         0.90305505407780    7.09253865937862    3.89834655355500
C        -1.19104602266918    7.44408572927544    4.12876813965705
H        -1.42600681391533    7.26204495133839    3.09073318122849
C        -2.20650069103361    7.75866268127698    5.03494919194248
C        -1.81928993229595    8.01984957316412    6.35214225854674
H        -2.55695069689291    8.30089395854199    7.08854691169925
C        -0.49441470717636    7.88631210554206    6.70737875624436
H        -0.18437950308298    8.05241455710067    7.72970282116847
N         3.44519274573510    6.59487995136519    6.35288696764834
N         1.66015654487464    4.57021297903503    5.37364925506839
N         0.46676462099989    7.52053836350608    5.85620034752804
N        -3.50972159347137    7.87832599480769    4.63365658860661
Ni        1.78434674329544    5.80572258051261    6.88592857394194
O         0.96830074731196    8.00151749127068   10.63437229827616
O         1.82898313900943    6.73081489810970    8.50554454900047
O         0.16294985351406    5.09578082288453    7.53312791129898
O        -2.18856956498443    5.34028333876869    8.67927072403544
H        -4.21138663476871    7.84599088102142    5.35460180540441
H        -3.76184255282882    7.42875876670662    3.76899180068652

