61
CSD_code = ZATWAV | q = 1 | S = 0 | Stoichiometry = C23H32ClIrN3O(1+) | MND = 8
O         5.35672225693480    4.76129502483790    4.06958567387936
Ir        3.39552902311871    2.99095078643849    2.42918424156955
Cl        5.15016560807959    3.37926762016153    0.90561072009641
N         4.50130519899423    0.45571794054632    3.25615121193691
N         3.48150699067304    0.02721176414474    1.40424035647003
N         4.90236350746945    2.59251983706130    3.89400198974333
C         1.55660986187950    3.43070316992889    3.59968523265538
C         2.16211296770526    4.72965075316213    3.36967525981801
C         2.45120735584929    5.70561368116983    4.45801219354062
H         3.09944862102784    6.50350953213685    4.11152002254234
H         2.92434259479071    5.22119263013695    5.30934075294706
H         1.51297606286386    6.14540559224456    4.80105435196642
C         2.22934966676397    4.94027027275873    1.98737928787742
C         2.62519406117472    6.17309989458122    1.25048022640146
H         2.98017850614592    6.94460686772374    1.92548068495229
H         1.76295697555106    6.55909365345509    0.70578414169133
H         3.40597147802796    5.95697219914758    0.52293420709713
C         1.67511665523294    3.76703909306619    1.32404011102421
C         1.15732218373051    2.89581010507434    2.34033339317162
C         0.24196106791018    1.73061336602563    2.15074156105023
H        -0.76353166214773    2.02444466291567    2.45461471339992
H         0.53581824585053    0.87907087325665    2.76108923689793
H         0.20158861923742    1.42240848750239    1.11070529715995
C         1.35271075493561    3.74340671816538   -0.13550997104615
H         0.95585022529796    2.78173953846008   -0.44885612456945
H         2.23473535689640    3.97243999272802   -0.73031245011308
H         0.60174300738265    4.50519694093884   -0.34915070747975
C         1.12475216199787    2.92062602589238    4.93394772224064
H         0.18287582620013    3.39358924479116    5.21681780203137
H         1.85765440363596    3.15340568418629    5.70346521188131
H         0.96814200426874    1.84471906266497    4.91398291014576
C         3.78156578368083    1.02474198213073    2.24134952688947
C         4.62565262397396   -0.89568744686932    3.04461709716290
H         5.15023470122376   -1.55072270686626    3.70725807320088
C         3.98239542912303   -1.15728545697668    1.88460150824799
H         3.84878126199366   -2.08360966763298    1.36454676578041
C         2.81625896471292    0.16174983410056    0.13799168655349
H         1.82145573589127   -0.28374011617045    0.17635163432316
H         3.39615831085131   -0.34086306172446   -0.63565674219601
H         2.74545408194713    1.21939152628777   -0.10456893901542
C         5.14100897123329    1.29815445841972    4.15728938509484
C         6.41651548647569    5.76141384443279    3.90473361790931
C         5.60022117589084    3.54609928597953    4.52717710246026
C         5.87186007595917    6.67674225369168    2.80982723968675
H         5.01417571133540    7.23593235403001    3.17095445097603
H         5.57897699125983    6.07742512685052    1.95262121174572
H         6.63768280651159    7.38096499035448    2.50087684532721
C         7.69840317357848    5.09994415124344    3.40674048611970
H         8.41852356138570    5.87007081382948    3.14711615100259
H         7.48240617648907    4.51281260769955    2.51606772038526
H         8.15074507014546    4.45270237716850    4.15364485769329
C         6.62572873321090    6.55170190079645    5.19597604832188
H         5.66596544321255    6.80114763258110    5.64261063657227
H         7.14652046783519    7.47676804136531    4.96544964955224
H         7.22203420307995    6.01025775200654    5.92495560667846
C         6.46167380037704    3.19907294102313    5.57606389041441
H         6.97065166561361    3.96556261913543    6.13324160277976
C         6.63950660555373    1.86941859369141    5.89718281041029
H         7.29488900090689    1.59349463715030    6.70784026519713
C         5.99921965663278    0.88287441647254    5.15730851420463
H         6.17055474243556   -0.16142669950349    5.35100203554618

