54
CSD_code = ZATWOI | q = 1 | S = 0 | Stoichiometry = C15H27ClCrN7O3(1+) | MND = 5
Cr        5.11187292568905    4.36755314222848    6.06631508306195
Cl        7.37308292106534    4.37708834320162    6.64532659694504
O         6.13383811898212    6.44758505070028    2.49831754049036
O         5.22699349261995    0.11897198794258    6.11452685632471
O         4.29716252166522    6.51304458084411    9.64663653339547
N         3.11051484267740    4.36102448956671    5.55279776717236
N         5.27361069760633    5.16693705166056    4.21194119905250
N         4.77081230104397    2.37712492105741    6.20634361479603
N         4.41403329619075    5.54867918613456    7.55551065110317
N         7.57289443754012    5.65414580693329    3.98165874136733
H         7.87662786599586    5.27585075332930    4.87817112937805
N         6.88533276241462    1.45681302397934    6.71614666693369
H         7.39638722544668    2.33615836990823    6.78457614128393
N         6.31020998455673    5.98041914557523    8.89574410794578
H         6.99311540000818    5.49312115768715    8.31694097736987
C         3.00264603115664    4.36948627127070    4.09745388886435
H         1.98566992926494    4.61964491440597    3.76854656637535
H         3.24985363735130    3.37112184629318    3.73802456639054
C         4.00887147448344    5.34341218620202    3.50686361325509
H         4.13313625950349    5.14622474375801    2.43652482311702
H         3.67661027593966    6.38372484259391    3.60559124648173
C         6.28655268006544    5.72384872828396    3.62335777029078
C         7.40876349371178    6.89558093688617    2.04252434057142
H         7.35067197890826    7.97251731407098    1.87563600376884
H         7.62603230953694    6.39646384034382    1.09384937600275
C         8.39831568014081    6.50246080036384    3.15229889780092
H         9.25757447320132    5.94933920996215    2.76800259177208
H         8.75999357057096    7.37114375103512    3.71299146404898
C         2.49372043185271    3.15676915421817    6.09973952610126
H         1.50741470725909    2.96991574660008    5.65564229057178
H         2.37170901918727    3.30138733660118    7.17269360324509
C         3.40915490972336    1.96207634179644    5.88811078069942
H         3.09719395554998    1.13492336019846    6.53522185831457
H         3.36937242746833    1.59479389420282    4.85556343290084
C         5.60521572424704    1.39225634971904    6.33444106528434
C         6.32326907487700   -0.75568863696409    6.37362069365037
H         6.44811054168417   -1.40934871242334    5.50866360070851
H         6.07546390516919   -1.36226340706146    7.24935562080969
C         7.52911937900707    0.16633761410031    6.62089732061889
H         8.05397042827625   -0.07309921605614    7.54780928017157
H         8.24627214145799    0.14302253447626    5.79325945860115
C         2.48242544269358    5.55257861838422    6.11443182014249
H         1.38727454913260    5.48102160080095    6.09266896023734
H         2.78823103888331    6.40719747305375    5.51174645455955
C         2.97383362406774    5.77950437703368    7.53470360149715
H         2.74293428249440    6.80321738131402    7.84907979400511
H         2.48436719945491    5.10615436166797    8.24850337375550
C         4.99930839323136    5.97281662892344    8.63279821246302
C         5.19119381736859    6.93625067942595   10.67404654306934
H         4.84539011420730    6.51533370087923   11.61963214282388
H         5.15203492701933    8.02771542258863   10.73126253115773
C         6.57555149921390    6.42029468909138   10.24647472641827
H         7.33424668491601    7.20542295910338   10.25570045789660
H         6.92024119421100    5.58942335210439   10.87151409494442

