49
CSD_code = ZATWEZ | q = 1 | S = 0 | Stoichiometry = C19H24ClIrN3O(1+) | MND = 8
C         3.84866957912397    9.72801912474203   11.47202564162825
H         4.05875808165585    8.78597386270657   10.97165193250989
H         3.01808316087219    9.58622439437879   12.16232101850886
H         4.72303873670316   10.05637382194232   12.03539908373018
C         2.78704310304111   11.84846570133143   10.75814259716558
H         2.52964555220937   12.12809321950063   11.75915731465104
C         2.52397294548662   12.46970399141136    9.58744873192355
H         1.99791590709743   13.37936952542790    9.39029222913273
C         3.68792181855111   10.59167861917281    9.16136350716319
C         2.92584428027054   11.72211333670768    7.22861643091980
C         2.17596717237244   12.66050640985060    6.54069142674862
H         1.71297434927938   13.48476382171995    7.05423437349934
C         2.01487832707287   12.48817474177352    5.17339767149461
H         1.43459117662935   13.19525167797218    4.60315641286607
C         2.57660515507168   11.38834896776198    4.55311270787061
H         2.43480059997967   11.21114299741910    3.49867358082560
C         3.32625018182694   10.49445111087113    5.31594390703708
C         6.72300873885016    9.29289286193136    7.68227888328136
C         6.27066102495178    8.47676635272994    6.57561545476692
C         5.55071143437318    7.39140077374386    7.09523327143779
C         5.58363041403893    7.48286559584798    8.54738688173001
C         6.38834612134376    8.61651085990207    8.89744672915898
C         7.68582710463850   10.42699473694377    7.56316187855618
H         8.69895978274340   10.03457087856758    7.46105061394583
H         7.65783128625276   11.06216083473456    8.44472427455096
H         7.47428214853034   11.03539244972088    6.68719695683898
C         6.70472616527417    8.69386389815002    5.16716132879828
H         6.13899905742217    8.07651986956382    4.47681604692619
H         7.75914377179096    8.42471584922119    5.08433265243162
H         6.60600839908724    9.73639935153058    4.87296067782120
C         4.97149906088806    6.23520463573068    6.35457962990646
H         4.90814902906186    6.44065724795353    5.29000955024453
H         3.97291321679873    6.00812139271332    6.72275856544900
H         5.59412314085559    5.35217058362572    6.50306028988723
C         5.13071893508296    6.37947294890381    9.44506544709547
H         4.08665007542761    6.13482123802674    9.25802193579267
H         5.24688942380351    6.63591039645000   10.49462933742297
H         5.72226217248079    5.48614944220635    9.24249915000897
C         6.97830437969992    8.93490634142321   10.23277488593885
H         8.03731439791614    8.67389879588580   10.21084548701265
H         6.50947333175999    8.36333763404770   11.02751125188928
H         6.90513258060879    9.99489619465202   10.46468278670752
N         3.48520188805563   10.70021937219141   10.47883357410856
N         3.07643807632553   11.68442127414346    8.60422638233153
N         3.53001901844272   10.68458505136720    6.62073183005891
O         3.89286940461165    9.39634860336266    4.82456910205808
H         3.64018546638519    9.23714691819803    3.90532427127998
Cl        2.33698399856688    8.27487284596457    7.95834242034371
Ir        4.49167682670610    9.25404944584205    7.87903988454457

