54
CSD_code = ZATXID | q = 1 | S = 0 | Stoichiometry = C15H27ClN7NiO3(1+) | MND = 5
Ni       15.15902597765387    2.76986919765697    9.90798730645133
Cl       15.79485243484185    1.84091295467895    8.21046284348493
O        18.42018079794353    0.74498982702449   12.05036048137698
O        11.37393331499055    0.61844057429467    9.45476764262997
O        16.08625298877579    6.58864050694989    7.96234065765893
N        14.55740820010370    3.62417757001655   11.48606058302122
N        16.59246469884866    1.86923301467622   11.20953261926494
N        13.20774749431877    1.94378706816181    9.87680174055733
N        15.58723922802461    4.74209265238152    9.24594776361247
N        18.15374671900019    0.76793506575496    9.85204132428098
N        13.20947171666678    0.22152151820147    8.28231950353798
N        16.32111573316692    4.59970263331595    7.02234221312785
H        17.64757418448232    0.89823669544306    8.98396144447104
H        14.12671586040399    0.42598040630205    7.90276511409662
H        16.27851107153672    3.58986753546224    6.95393708533261
C        14.84205930993949    2.74623111088046   12.63276837304617
H        14.16720401895777    1.89209394162418   12.57577306042856
H        14.65683446301325    3.28022259815214   13.57321273915087
C        16.27458810032746    2.21817309291605   12.59029362404293
H        16.99337255810715    2.96016752920487   12.95868764286515
H        16.36029041325320    1.33874417977243   13.23839887984220
C        17.65528713120872    1.16344317061306   11.02811628680741
C        19.52492227017430    0.00006131066663   11.54129936545721
H        19.54253631578892   -0.96938042285591   12.04299052039724
H        20.44138313742542    0.54503317237454   11.78354394842297
C        19.28853415196342   -0.10792850580843   10.02364067763597
H        20.14513438267079    0.24440231794945    9.44448434406337
H        19.05038608514713   -1.13109461566369    9.71431597377660
C        13.10897450398682    3.85295251606990   11.36207983347384
H        12.95719909339168    4.63017260850190   10.61252830809241
H        12.69654812089181    4.20032257158539   12.31778770979274
C        12.38460253614933    2.59363905907990   10.89250981756758
H        12.19854766495693    1.89773880183372   11.71960980703219
H        11.40773036942445    2.86477234667184   10.47634723928248
C        12.64595718552326    0.98272240596555    9.22490747212136
C        11.02669616610321   -0.46389607121048    8.59288537467549
H        10.13520839355126   -0.17869954030126    8.03047764831135
H        10.79394019565431   -1.33151476003623    9.21585213075243
C        12.25785429272431   -0.69277393013588    7.69657925077043
H        12.62301885301761   -1.72136801319748    7.74891962814280
H        12.05988849372604   -0.44193107470723    6.64958055779309
C        15.26406834701814    4.90629097938162   11.63619117071663
H        16.29463945033250    4.68931637765103   11.91757881922857
H        14.79954086852400    5.50521134707190   12.42949385595605
C        15.28935500879464    5.68234548838659   10.32233422198492
H        14.33240660967525    6.18040808006780   10.12436054482597
H        16.05511626364687    6.46425806601953   10.37215205898995
C        15.97558895073584    5.26015733829861    8.13000162895214
C        16.57196135654590    6.86386504615705    6.64980154476020
H        17.53862866726013    7.36571564973315    6.74310752055146
H        15.86537834635285    7.53854527460412    6.16188666082047
C        16.67971836958914    5.49614473352444    5.94994663964870
H        15.98345488594524    5.40443445319209    5.11048433947070
H        17.69200424774311    5.29341414564417    5.59074245744242

