46
CSD_code = ZATYOL | q = 0 | S = 0 | Stoichiometry = C20H21ClNO2Rh | MND = 8
Rh        2.06017200885416    8.67270464508474    5.76743683955559
Cl        0.04395097461920    9.27655225203792    6.71123259247179
O         1.27528750889298    8.79050917417585    3.86314539230216
O         0.53081322272985    7.53991522226635    2.18389158627078
N         1.19442345688909    6.81321184725217    5.56228210837460
C         0.85239088525476    7.70751423263046    3.34357846128952
C         0.74819126548176    6.56018051598059    4.34463212284348
C         0.15454025529045    5.34298650188371    3.97968439982831
H        -0.17002898387404    5.23789190001243    2.95624551525522
C         0.03015601475323    4.35744100894468    4.91675705059873
H        -0.39152642796251    3.39367339821370    4.67169554351039
C         0.43439421124624    4.62033168072418    6.24320120725520
C         0.27778062325459    3.68262957368121    7.28421414224479
H        -0.13837597172655    2.71510124947187    7.04514224450307
C         0.62493188692622    3.99869288735853    8.56814579074451
H         0.49534753753156    3.27732517969224    9.36067024183774
C         1.12886756526801    5.27316725226988    8.86855683723343
H         1.36052739686702    5.52219360896219    9.89316235550244
C         1.31496930039683    6.19973358120421    7.87978119768606
H         1.65900024223437    7.19965293920759    8.10256133881123
C         0.99518782461318    5.89257274231901    6.54340340192159
C         3.76386969931694    9.92756907633247    5.18646490840243
C         3.17441453906546   10.40718166087897    6.39289360437360
C         3.34267683353871    9.38852640909622    7.40533592039864
C         4.00451227975138    8.27992782255448    6.80444098226344
C         4.22296276180251    8.58880496416748    5.41724096814675
C         3.89957010771035   10.67103602903147    3.89886955938885
H         3.08738476016494   10.40143675080819    3.22084869671121
H         4.84337518711524   10.41796767234443    3.41925992755364
H         3.86155154752280   11.74418963605904    4.06829274960587
C         2.66623008089138   11.78883311355474    6.65817805004224
H         1.80737459900349   11.75538193848772    7.32508339930154
H         2.36198069914570   12.27432344198968    5.73470667275252
H         3.44989606754003   12.38449787857648    7.13097278015411
C         3.02244295733886    9.59804313730941    8.85164983477189
H         3.25171711087574    8.71662323132074    9.44540880893922
H         1.96749047655528    9.84072995446700    8.97663635864422
H         3.60851969113094   10.43468450493762    9.23345851553010
C         4.54609584992484    7.06492376271835    7.49035870260967
H         4.27620241213923    6.15206153227887    6.96147544323244
H         4.18483583279145    6.98693001333044    8.51189628607784
H         5.63514840474623    7.13005846687391    7.51419391250026
C         5.01281057708586    7.76777663762552    4.44741894211164
H         4.61615408878269    7.87473710060866    3.43989389634858
H         4.99293487375957    6.71468226177922    4.71867521715328
H         6.05314776475786    8.10019160949428    4.44312549294246

