74
CSD_code = ZATZIF | q = 0 | S = 0 | Stoichiometry = C28H39AgN4O2 | MND = 3
Ag       13.00901245660887    2.87730951760099   15.67735386812029
O        13.23045647661856    2.82282019508839   13.25733217388893
O        14.06607689378289    4.58028553354505   14.28943907406575
N        16.21191749143109    2.27981215345974   16.22140397653375
N        15.19913197581072    0.63023289162190   15.24398822136323
N        10.49815754097522    2.04840552499932   17.46980545051708
N         9.92298386587997    3.79778068222614   16.32470984662753
C        14.99116064474408    1.74038800263228   15.99497876950483
C        17.19383213586754    1.52712198140200   15.62214170032190
C        18.57484099597450    1.65645614439002   15.58633369751692
H        19.07908163156926    2.47664915833490   16.07323220398951
C        19.28867871022525    0.69233643696822   14.90222468198820
H        20.36490264679768    0.76250221528954   14.85312542920549
C        18.64596611282533   -0.37018055059595   14.27230551530714
H        19.23672907695759   -1.10452260308378   13.74534367194576
C        17.27188495980061   -0.50910318049685   14.30583126735980
H        16.80249330475459   -1.34368082053841   13.81066731496737
C        16.53928046594868    0.45271412537277   14.98949424090309
C        16.50270806160749    3.50564507049049   16.94195878606911
H        17.40678962856385    3.31092353950734   17.53854043515008
C        16.77838130787916    4.63134262761112   15.94528713658494
H        17.60787769687137    4.37410859403433   15.29034517648353
H        17.02235597889948    5.54843687045875   16.47464085192705
H        15.89229848303161    4.79932445346008   15.33536929943898
C        15.36704561799164    3.88565192621645   17.88191667242248
H        15.13526635374353    3.06752258043075   18.56003203422871
H        14.47391923055070    4.13222671531919   17.30031736413743
H        15.65578915590422    4.75643197696894   18.46411715321525
C        14.11620124505714   -0.22555669878697   14.80552285848533
H        13.20015452160048    0.25741658229460   15.18045961677589
C        14.02361767090023   -0.26869001003341   13.28316852240332
H        13.84722412214036    0.73869646895626   12.91217340701036
H        13.18852048655484   -0.89750703556482   12.98554486962750
H        14.93217135471900   -0.65971552190935   12.83458093952890
C        14.23447972693873   -1.61366633233706   15.43598114624939
H        14.33059640637800   -1.52868607001808   16.51681081565401
H        15.09984352496917   -2.14867535410157   15.05486547155662
H        13.34451331101992   -2.19556396835885   15.21113779689272
C        10.97087936333033    3.00760475259222   16.63795304307659
C         8.77833767607723    3.35171776056192   16.94125605459286
C         7.46822367162188    3.80985439094867   16.92815480474308
H         7.17459244753686    4.67250089711067   16.35065764866849
C         6.54144148416912    3.11789840218544   17.68171647405792
H         5.51414411169357    3.44874111252753   17.69428983328020
C         6.90516779842994    1.99802994010015   18.42545759793170
H         6.15226240024369    1.48186064335418   19.00168653777845
C         8.20474400816638    1.53061014937064   18.44147234216861
H         8.45775658743076    0.65820498013561   19.02173407972827
C         9.14947387883515    2.21807480210226   17.69076771903374
C        11.34683726493923    1.01436733353100   18.02261423001131
H        12.34985104851664    1.23147438364982   17.62431343616230
C        10.92060162347830   -0.36663725909393   17.52911230837700
H        10.87821037696387   -0.37389705257540   16.44229094706911
H         9.94333033067521   -0.64397845225723   17.91448639640702
H        11.64385016675977   -1.11019852529011   17.85216143026947
C        11.40575146208914    1.10053694670729   19.54615978126756
H        11.70267862766802    2.10171893654289   19.84949683227786
H        12.14013658423644    0.39350807530756   19.92207006015347
H        10.44495748939222    0.87250588446045   19.99861491867436
C         9.97855378706048    4.93187977233596   15.41806935786839
H         9.03960927771321    5.48246032568564   15.55449670998520
C        10.06823580249898    4.43619287411446   13.97640026139425
H         9.22745684486342    3.78622353059500   13.73993129692048
H        10.99351745062838    3.88013270944845   13.83043727858240
H        10.06168742476804    5.28016493924026   13.29236539923221
C        11.14343912574210    5.85388337934056   15.76367228572610
H        11.13359708303036    6.10490350890294   16.82253073263202
H        11.06378475366257    6.77131332456417   15.18687261296174
H        12.09372033132310    5.37911335808927   15.51671581001277
C        13.89696117680880    3.87794180852512   13.27167172574494
C        14.55742878050971    4.32785528583217   11.96948286968151
H        14.67578452881441    5.40794754137584   11.96571293765166
H        13.96304058014518    4.00447954466416   11.11914279448390
H        15.54171337824294    3.86591617254884   11.90504999337751

