67
CSD_code = ZAVBIK | q = 1 | S = 0 | Stoichiometry = C19H40CoN4O3(1+) | MND = 6
Co       -6.10488933548303    4.41879218601647    1.42911578694893
N        -5.37932194051048    4.00099266175848    3.32155325752240
H        -5.80610639928357    3.12540805180383    3.63250394178765
C        -3.93002378832636    3.71324466386441    3.15777162285542
H        -3.58004535409759    3.08124920078837    3.98540042033088
C        -3.06159083370013    4.97030754238811    3.10151535678700
H        -3.50068412051478    5.72429161266188    2.45526057248431
H        -2.07578027608559    4.70891183545785    2.72487067242493
H        -2.92380316872015    5.40525113985316    4.08607239545316
C        -3.78790651617726    2.90879202030844    1.86795217314687
H        -2.72763114012885    2.69850883880837    1.70688780214500
H        -4.31273930122462    1.95417727676857    1.96406866869954
N        -4.36135965431798    3.66111966128942    0.74105618000265
H        -3.80065563042649    4.51244390601426    0.63995960955118
C        -4.25363305115266    2.94990289630220   -0.56410752189562
C        -2.87840173583430    2.28097753855093   -0.72738988288039
H        -2.07559159802328    2.98549579727258   -0.52266845037704
H        -2.76937117340670    1.95593417078279   -1.75807257255039
H        -2.75859485978132    1.40450933046756   -0.09604248991853
C        -4.38603944792154    3.96721585943616   -1.69880847696385
H        -5.29130686063412    4.55750925843496   -1.62228208576619
H        -4.39586667226728    3.45594378908279   -2.65686668011374
H        -3.53967909198460    4.65053291636637   -1.69136730782282
C        -5.33120101276613    1.86092450907524   -0.64787133811728
H        -5.21690435699917    1.38493105733275   -1.62101702291019
H        -5.13583166698571    1.08736590013167    0.10040725157073
C        -6.78456751204353    2.32562432321565   -0.51906152852711
H        -6.93109421894715    3.25040868968219   -1.07959296921318
C        -7.67473540080225    1.24652864857783   -1.13897914752947
H        -7.59120162160795    0.30382264617883   -0.60158525973362
H        -7.34954357160190    1.07598200008064   -2.16160985879795
H        -8.71466785008416    1.55093091038168   -1.18978769450225
N        -7.09669546130818    2.64500722411339    0.90278058070257
H        -6.84095031132248    1.82151496580467    1.45226297648142
C        -8.53537712372122    2.89557593826192    1.14676250901807
H        -8.93880324012559    3.35922557839691    0.24271346468070
C        -9.32150974477707    1.63435263582465    1.51629263489493
H        -9.34570078400575    0.90061494968894    0.72116537862113
H       -10.34968998518814    1.89981095605075    1.74761017888018
H        -8.89060537734627    1.16647504553651    2.40069061580404
C        -8.69643191187214    3.86727736784159    2.31656257775551
H        -9.74908540924711    4.15791647213454    2.36434229165001
H        -8.44719594231150    3.33896325738610    3.23983224820015
N        -7.83440328965626    5.05288184350500    2.20921021195684
H        -8.19764608952863    5.62669815218638    1.44070907783677
C        -7.90171926422179    5.90789441685479    3.43196269476185
C        -9.36151827488726    6.11986145626110    3.87038612177821
H        -9.97651692977855    6.43363751146394    3.03014678076444
H        -9.39342248423496    6.91443579880562    4.61031697440007
H        -9.79866215450806    5.23483560849658    4.32456076288384
C        -7.32987166701426    7.29147059520815    3.12319325708817
H        -6.32777205216965    7.23978687738606    2.71397238298952
H        -7.30247354259337    7.89057534161089    4.02853812697994
H        -7.95777104701478    7.80449067432284    2.39820641678197
C        -7.14971515094939    5.22964176036910    4.58632811181386
H        -7.25985005440960    5.88122600842776    5.45317041897877
H        -7.63530481739307    4.28609884225193    4.84727545196986
C        -5.65097813438276    4.98316011511014    4.39978704155274
H        -5.17259381581507    5.91804659397021    4.11035602221587
C        -5.09578614793724    4.50004394319087    5.74368838812079
H        -5.53865469756759    3.54474233355979    6.02277466982058
H        -5.33972905431619    5.22038336532806    6.51866308198350
H        -4.01658052508747    4.39053635411450    5.73469012752931
O        -5.33075365283009    6.06910643120384    1.32143601059891
O        -6.63452605972152    5.24755606902314   -0.11177414041645
O        -5.83612324645425    7.32687182018767   -0.48304175011667
C        -5.92531339446169    6.32985285698730    0.16794287694762

