49
CSD_code = ZAVCUU | q = 0 | S = 0 | Stoichiometry = C20H21MnN2O5 | MND = 6
Mn        2.93508728833572    1.09584019436812    2.95107860408732
O         2.12830692623141    2.13883800319228    1.62832810566828
O         3.92014982844583   -0.11885629970656    3.73008675716597
O         1.26156811366093    0.58977456492796    3.75408524069536
O         3.13325026723663    2.54972280458835    4.12523793897815
O         4.87745974247144    1.83575984683995    2.01078481635885
N         2.62389376358326   -0.22706420429493    1.50527182816678
N         2.03920670417728    0.26425094080866    0.40283153157599
C         1.76134692461164    1.54258525302461    0.55190975684963
C         1.03874531237875    2.25987520921235   -0.50281844824611
C         0.74214647428437    3.61209202888933   -0.33996203752120
C         0.05808154029522    4.29645898984933   -1.32619959341784
C        -0.33461253120378    3.64063516922439   -2.48209568699931
C        -0.04161476721940    2.29533067637336   -2.64907492549951
C         0.64019822531539    1.60402085229863   -1.66667955203339
C         2.79725855462540   -1.51730017120541    1.57220034644805
C         3.41714811525566   -2.17737130283454    2.67243739665653
C         3.53816693817344   -3.57323695006196    2.70190919457881
C         4.09949177699340   -4.22105974636127    3.77777260783811
C         4.56863678023960   -3.48461656897017    4.86334885631983
C         4.49260955100894   -2.11036390469989    4.85861101958926
C         3.92653872402416   -1.42407230150015    3.77216814624614
C        -0.64426055284080    0.57995284563464    5.16150273797655
C         0.67966727886983    1.16224009076504    4.71625792053735
C         1.15999412961217    2.29663841592015    5.39271708031951
C         2.35551439873424    2.92474298322157    5.06056926633105
C         2.76836889308025    4.15042371078199    5.84844043268180
C         6.09085779257219    1.10175941743957    2.00992227222592
H         4.99998475212109    2.63726635152704    2.53884680054212
H         1.05530194773799    4.10723120022039    0.56727437828245
H        -0.17118072974524    5.34434739753354   -1.19604216759187
H        -0.86944502723222    4.17721859246762   -3.25231352354479
H        -0.34973780428394    1.78660964202210   -3.55098135462900
H         0.87605348745230    0.55787161051895   -1.77461559677252
H         2.44134332022389   -2.11912732434431    0.74013648003186
H         3.17227854459153   -4.13908673170114    1.85715089638026
H         4.17448621843841   -5.29787110132056    3.78530805603647
H         5.00095107820113   -3.99331601971586    5.71242574475650
H         4.85873260059349   -1.52835120350705    5.69209236137013
H        -0.87061188216642   -0.29895910984797    4.56442635833343
H        -0.59684857976873    0.30380651681707    6.21250492872582
H        -1.43516316710991    1.31624638518873    5.03542888802495
H         0.56526449360055    2.70651708127276    6.19428592955634
H         3.78655071214096    4.43136951033087    5.59087802648151
H         2.10371547661424    4.97940887009481    5.61126782746420
H         2.70327600465872    3.95530166053532    6.91594471752865
H         6.89526635358099    1.70667690512172    1.57972336549870
H         6.36878843412484    0.77920248999288    3.01700776493714
H         5.92808757326747    0.22253672906746    1.38770850500200

