41
CSD_code = ZAVGEL | q = 0 | S = 0 | Stoichiometry = C18H15F4MoO2P | MND = 6
Mo        8.44935417701998    7.15450760872883   16.75393386825373
P         5.96338773368420    7.22458102732218   18.85599071926974
C         5.45433988440429    6.55120730357897   20.45881571434843
F         9.66246064701743    6.27723171502524   17.69518968597070
O         7.21195624454981    6.50668587586897   18.42089647837010
F         6.90609799597879    7.88631236508996   16.23707096453722
F         8.71681674265026    8.55486628695370   17.80625652336842
C         6.26779883441344    9.00180586939882   19.07888919479039
F         7.89261834335911    5.60760523896972   16.09353603749117
O         9.34870867048030    7.63732180595501   15.48063165142646
C         6.10132407331140    5.41793076073889   20.93208685051667
H         6.89809736974506    4.98796245925943   20.34175279540008
C         6.94762588482069    9.38222976337989   20.23122353564873
H         7.19680577028162    8.63334927775010   20.97210319862735
C         4.70892103812836    5.44983695490239   22.88313207389754
H         4.41737840456195    5.02223492831022   23.83074584095088
C         5.94997685701147    9.94395509939436   18.10856437753002
H         5.42982365167144    9.64466131026426   17.20903896740918
C         4.59549427124016    6.96050805789490   17.69455470806786
C         6.31742111347459   11.26532784594055   18.29763518802219
H         6.08189914651144   11.99933546256655   17.54185080250685
C         5.72857008428785    4.86906280453238   22.14663872519327
H         6.23276381773132    3.99021223390134   22.51943718461512
C         4.43321442177454    7.13481525557364   21.19785349913924
H         3.94153942998100    8.02276686192847   20.82791034552100
C         6.99544578339654   11.64447707953629   19.44483088223522
H         7.28787802684491   12.67483718021971   19.58132722030455
C         7.30890268043752   10.70433708111396   20.41341199900764
H         7.84360051932625   11.00005403904197   21.30356766792579
C         4.06274295179804    6.58186133539611   22.40992056055885
H         3.27128178179980    7.03370914794122   22.98899534183565
C         4.71633112477980    5.94405264682788   16.75451207348532
H         5.62575032390233    5.35681920645961   16.71649962318833
C         3.68052461060066    5.70255312112165   15.86903820899984
H         3.77657267107108    4.92153117553380   15.13030148821638
C         2.52491377443134    6.46511228803162   15.92868358770839
H         1.71912765560719    6.27846193603894   15.23464567563342
C         3.43397295920093    7.72090099452527   17.75932323780381
H         3.34644103700930    8.51228715399739   18.48997605314815
C         2.40081985179086    7.47097316772809   16.87416394686695
H         1.49999963991923    8.06501827324820   16.91716350220586

