33
CSD_code = ZAVHIQ | q = 0 | S = 0 | Stoichiometry = C8H16N2O6Pt | MND = 4
Pt        2.37923778304306    8.41830421494499    1.10264976161428
C        -0.13112719104213    8.28835035597551   -2.55502133412156
H        -0.36359503606194    9.24952722431204   -3.00566239745646
H         0.11781985657653    7.55810780313436   -3.31955836395684
C        -1.18535471083642    7.85505840119817   -1.52062026218508
C        -0.20823966297522    8.20532287517918   -0.37176279643228
H        -0.07530932120792    7.39112446201104    0.34535779990142
H        -0.48042169925649    9.13443041555551    0.12924577360826
C         0.90600382126416    8.39161526778273   -1.43289101537392
C        -1.99516031366456    5.92581698912924   -2.64812826057384
H        -2.48115093937585    4.99452569921236   -2.36114000547041
H        -1.18960013398525    5.71194540095550   -3.35535793940464
H        -2.72189423381682    6.59724236753728   -3.11239599549068
C        -3.27228336635772    8.45465239014661   -0.56460626075011
H        -4.15882317961789    9.02081552866660   -0.84209146516184
H        -2.87238987037596    8.83945111922314    0.38033583085180
H        -3.52985628344074    7.39944337758401   -0.43635707521656
C         1.64038547426969    9.73807925141299   -1.31517477435974
C         1.91897166876762    7.22887291404341   -1.44194106000501
N         2.30431762395731    9.98935739445340    2.53349536304056
H         2.29224944968193   10.78109634495406    1.88402106514909
H         3.13661508971330   10.06658710135732    3.11326452090800
H         1.47666723065701   10.04005393035528    3.12225732012519
N         2.65594197154983    6.72537960398825    2.35832527655047
H         2.77160531824147    6.01810704220998    1.62637970088916
H         1.87636070466725    6.45288380029273    2.95184531217111
H         3.50914610821923    6.75060590306093    2.91184924246204
O        -1.48223355678896    6.48663436717758   -1.45344528798147
O        -2.35110669218736    8.63005978623134   -1.61903989211878
O         1.59178841267834   10.56256313362451   -2.19812568311407
O         2.24856685411126    9.94740546166580   -0.18942476540671
O         2.57458360303224    7.04295345788842   -0.34157885139248
O         2.05148522055439    6.51992661473237   -2.41270348129092

