114
CSD_code = ZAVHUB | q = 0 | S = 0 | Stoichiometry = C53H51N5P4W | MND = 6
W         5.00490976354728   10.78652858727996    4.70843501694986
N         6.18414907662654   11.85850589721071    1.00072180443517
N         5.82320668178648    9.31735022629828    3.86551622032342
N         6.32713365132856    8.49450058252490    3.27667899185274
N         4.20965586156180   12.33026216161369    5.44378297393456
N         3.74755703797477   13.27199096380091    5.84842544638487
P         6.76139547572501   12.07874190797732    3.71897740655881
P         3.98119211777529   11.17525648768543    2.57619084769065
P         3.21176987503394    9.57296720642795    5.77831845058951
P         5.92236918366943   10.56222965922372    6.92909184775674
C         8.87384446590388   10.63583178821789    4.72725800173571
H         8.18869178938066    9.80550559350094    4.61900549170225
C        10.15538940485928   10.41908237319619    5.19786150490340
H        10.47818668650113    9.41698938371866    5.44312741669288
C        11.01896184652103   11.48967988266914    5.36463590409004
H        12.01901211182510   11.32510235894818    5.73926907028533
C        10.59687546995469   12.77178067152429    5.05487152447533
H        11.26725895212267   13.60859122631069    5.19047644350600
C         9.32115930969602   12.98890235622319    4.56538992439764
H         8.99970221972681   13.99086935121530    4.31727092855328
C         8.44940757189218   11.91940755581354    4.39865502392843
C         6.45254136314802   14.61828928360981    2.46943367721928
H         6.58084288906258   14.13722036630127    1.51356706757169
C         6.19544120020581   15.97655315503815    2.53284052706043
H         6.12858510151622   16.55118439046291    1.61972767252732
C         6.02075336418539   16.60199052542014    3.75526080099379
H         5.81066525920477   17.66106452813709    3.79596219501534
C         6.11929642147884   15.86794234805610    4.92655260280403
H         5.99106022291650   16.35091438052627    5.88426867495288
C         6.37598404516726   14.51302763338990    4.86812936188099
H         6.46832396824783   13.93159171908965    5.77575492214649
C         6.54019410340663   13.87515645300813    3.64015180011262
C         7.22259085387925   11.61940941854435    1.98307034944148
H         8.10134961157258   12.22423107806849    1.72120861382090
H         7.54161214538566   10.55798321672945    2.00689844252839
C         6.74330722287469   11.83943081827421   -0.34060149309818
H         7.53403289219768   12.58641050173777   -0.41510429010761
H         5.96503849206454   12.08988345964708   -1.06197150310344
H         7.16374153308227   10.85844756945024   -0.60731313323229
C         5.07013723817654   10.93656908338772    1.09421433975681
H         5.40277512255283    9.87902601961714    1.11380563850615
H         4.43082666963671   11.06640768715636    0.21052958781066
C         3.66061096424934   13.72778695154329    1.36026029717269
H         4.42973915265001   13.45974484903724    0.65419998261868
C         3.08146389542077   14.98361025358744    1.31024092398877
H         3.40145872010662   15.69051309163010    0.55769853848351
C         2.09849420500996   15.33976498642274    2.21741788545899
H         1.65727626484504   16.32525057561391    2.17747147862763
C         1.67876120842269   14.42911924504202    3.17398854477905
H         0.90784488220368   14.69663958319165    3.88176476434000
C         2.25318341225898   13.17510106572102    3.22766582348481
H         1.92364286230315   12.45421962274202    3.96312860144810
C         3.25246906480306   12.81493936823879    2.32479752806893
C         2.84110334448474    8.70640287167015    2.18368593943004
H         3.75728249994180    8.36230156186645    2.64204754916754
C         1.87194074514648    7.79761202883272    1.80365369160242
H         2.02965304315132    6.74083107161493    1.96528658663303
C         0.69349727386143    8.24839228504860    1.22976435932963
H        -0.07223302246043    7.54283977839381    0.94151910268162
C         0.49831495134378    9.60476196465539    1.02785760954840
H        -0.41852292512173    9.95610463693347    0.57585228804044
C         1.46914131099924   10.51632572632686    1.40518428125141
H         1.30803303539638   11.57397823217804    1.25075088071504
C         2.64667351231203   10.07144903597137    1.99473289456098
C         1.46870230995785    7.36572266777011    5.96589233949208
H         0.76275608233858    8.04734789934423    6.41994214980047
C         1.13779901987044    6.03262573989441    5.81145559910167
H         0.17320371166611    5.67740174928510    6.14513685482832
C         2.03798580791525    5.15172778783486    5.23356627924331
H         1.77294899762420    4.11159564590027    5.11063240579476
C         3.27841926542059    5.60684133884289    4.82102898931653
H         3.98854013743890    4.92261892451038    4.37938494192966
C         3.60930390916067    6.94137245054773    4.97227643315054
H         4.57780536979644    7.29531062268178    4.65357396641586
C         2.70427873832068    7.83536142971355    5.52971332666990
C         1.29327914822342   11.48125214403757    6.54813084879836
H         1.96259336746361   11.75066421881311    7.35165488248335
C         0.12887319418585   12.20586162787830    6.36592752823792
H        -0.09605206358639   13.03056064388148    7.02683562849924
C        -0.74089807054868   11.88264461238053    5.33834403863346
H        -1.64703533604932   12.45308273636221    5.19527163839266
C        -0.44457975137888   10.82427894435135    4.49395936533951
H        -1.11823561566074   10.56373347595964    3.69039675046961
C         0.71888979624918   10.10089924568254    4.67104001318550
H         0.94793760414443    9.27486386299254    4.01325401342489
C         1.60023055461406   10.41706598165144    5.70429437190861
C         3.52227979378363    9.43451591981518    7.61575051965281
H         2.57262961971442    9.44520906539781    8.16154530921874
H         3.99499876763797    8.45474839486650    7.76428533976516
C         4.47123852161333   10.52273227069457    8.08966249868842
H         4.80784335518517   10.33932909380249    9.11588558201610
H         3.98689421041319   11.50176583383463    8.05030335885851
C         8.30432402568089   11.76445550356465    7.75059326579243
H         8.76712054913335   10.83372918571679    7.45549660837818
C         9.08622269972886   12.80637568456739    8.21042881680211
H        10.15824718963160   12.68519372587459    8.26739399583757
C         8.49854498767728   14.00004306853550    8.59531992797475
H         9.10918818452904   14.81438656793198    8.95681189857227
C         7.12433397892426   14.14582434191123    8.51198215390562
H         6.65959604001040   15.07606395602893    8.80592745056201
C         6.33896473111408   13.10696439206634    8.04417794356980
H         5.27074411271473   13.24992082778020    7.96184408751673
C         6.91992845370396   11.89682440424768    7.67046618155605
C         7.25297643157236    9.03986623326149    8.88474573377868
H         7.15461035655880    9.90775984890754    9.52354756923231
C         7.85173071006986    7.89236449451719    9.36746182668041
H         8.21219287390174    7.86190047694394   10.38590610539561
C         7.99033041777717    6.78062237056747    8.55020786944474
H         8.45885934667319    5.88545941522092    8.93260149421288
C         7.52824342002226    6.82089010390833    7.24651027156695
H         7.63278471671136    5.95721723188839    6.60601079581116
C         6.93072259808286    7.97134643751952    6.76168572977989
H         6.56868693150970    8.00817338848051    5.74564515870933
C         6.78996012384983    9.08918536839540    7.57157449475873

