98
CSD_code = ZAVHEL | q = 0 | S = 0 | Stoichiometry = C37H51N5P4W | MND = 6
W         4.57381645930030    8.36358258096759    5.91741419428907
N         1.18838282118635    6.72872352483897    7.02488716062396
N         3.88497918399880    9.84289761261018    4.97926637252221
N         3.39934770739388   10.70851541750650    4.45009688936678
N         5.09077432164719    6.83218939376112    6.88461925875413
N         5.28298040453908    5.88776119663079    7.47200426839751
P         6.37363391043250    7.99586014769413    4.34868365736500
P         6.23361835247201    9.85791623859002    6.83903961690396
P         2.95743061637134    8.71343197202727    7.66696056791965
P         2.92848890605488    6.91605977556310    4.92494880198629
C         5.25620295253780    9.40555568306640    2.25913858970650
H         4.33343404309815    9.02476109734494    2.67441219645964
C         5.22774200338941   10.23163235794037    1.15093758065222
H         4.28202430082213   10.49579090520411    0.70108918770460
C         6.41053737774281   10.72457441822598    0.62696808949399
H         6.39461135709501   11.37603850263044   -0.23453369080880
C         7.61752199482785   10.37693935762222    1.21142252021481
H         8.54432419438127   10.75348777446918    0.80184399669118
C         7.64641359839153    9.54835125764352    2.31839763898730
H         8.60088960050217    9.28100880812162    2.74783169966831
C         6.46123001657581    9.05694629917481    2.86169989731674
C         7.11495706214631    5.34657584481927    4.60536915574255
H         6.87637809090779    5.50630755143371    5.64713958154322
C         7.55726941677644    4.10695417488606    4.18352891558875
H         7.66899495376966    3.30406122489856    4.89792875468558
C         7.85344972975446    3.89446025352634    2.84694837208008
H         8.19806044719275    2.92576341976359    2.51529127991230
C         7.70321666775668    4.92676678369278    1.93662425376611
H         7.93078520460774    4.76452904307510    0.89253504852750
C         7.26008773744307    6.16860762462649    2.35572477085547
H         7.13924450190664    6.96566769367453    1.63516836000139
C         6.96671389809358    6.39087905342452    3.69686480881679
C         7.93199944656883    8.46885947708252    5.23912228040700
H         8.02562165340174    7.77550713609362    6.08488993861098
H         8.81966248120233    8.35512765037628    4.60957136772209
C         7.74630771074056    9.88711762041980    5.74777521358638
H         7.57611035243483   10.56426508788729    4.90551202678265
H         8.61706452236300   10.23520729613747    6.31253950954534
C         5.60707762659402   12.29577016354112    5.67389316358216
H         5.83796457302541   11.80275882510720    4.73882946891140
C         5.12633606356000   13.59139889853571    5.65617501516761
H         4.99397095182726   14.09969242311792    4.71233234768291
C         4.80576705742212   14.23159953051010    6.84142042189923
H         4.42853684130306   15.24357280339834    6.82732641856941
C         4.96558194805177   13.56676030589409    8.04573041250210
H         4.71432069862423   14.06014086061638    8.97416726990286
C         5.44102412151248   12.26897163298346    8.06592266222460
H         5.56260346898509   11.76067400492183    9.01359449122278
C         5.78295018525573   11.62123312057215    6.88097021079371
C         7.08133843612935    8.43996165827437    9.09245615167120
H         6.45220556804574    7.65033698670648    8.71098233453398
C         7.82374175124139    8.23929405058383   10.24373075884552
H         7.76911736006032    7.29185586458626   10.76020547628133
C         8.63506804864048    9.24970923372719   10.72876582039734
H         9.21141790257669    9.09811757971514   11.62984912754328
C         8.71382169152060   10.45669811384278   10.05086966397998
H         9.35438986896295   11.24414488561140   10.42220478954968
C         7.97987571165137   10.65497356893542    8.89734818770648
H         8.05134104756402   11.59500398158772    8.36587111542879
C         7.14193398019245    9.65068030405756    8.41605379543903
C         1.57304864910253    9.92228994469864    7.53549066798561
H         1.01969920893273    9.65304730913499    6.63086334742708
H         0.90498112400086    9.78105695409512    8.39174965031946
C         2.04440139319814   11.36793537312595    7.45221329412071
H         1.18966095713185   12.03972314299741    7.38405025432454
H         2.66738049478893   11.52366945333671    6.57531775922573
H         2.62721002821643   11.64230142219530    8.32885295729205
C         3.70373540722904    9.08619483480770    9.31653678953925
H         4.29506453865447    8.19682603441265    9.56185924425725
H         4.41559062596313    9.89731238299739    9.13378178142053
C         2.79487652555358    9.43919801483885   10.48733532661669
H         3.40210975804929    9.60465573499475   11.37661421967499
H         2.09575294639732    8.63583539472632   10.70791760274878
H         2.23064430275455   10.34771598822945   10.29260774471853
C         1.97985319287614    7.21569865702985    8.13889889055535
H         2.67730320448169    6.44749444638305    8.52230959582530
H         1.30425765324689    7.49845014001568    8.95293394915083
C        -0.00457531651419    6.04412760351436    7.48920739141444
H        -0.60141742146402    6.73043067190587    8.08966267854508
H         0.22239374698259    5.15269122512734    8.09374821086848
H        -0.60481422244361    5.73752194652779    6.63291571063215
C         1.96596924662096    5.89284667348017    6.12947582997929
H         1.28883817615627    5.24910562404492    5.55909835930215
H         2.67412714652935    5.23875086914874    6.67146970728353
C         1.57926436949767    7.74927580866481    3.98897440167750
H         1.19166071672369    8.51340093498957    4.66999940002002
H         2.07170679020973    8.27712532446481    3.16580392697585
C         0.43740948438068    6.89258267207048    3.45904352226125
H        -0.21578030633279    7.50134890120986    2.83526243992136
H        -0.15884896563110    6.49375061234401    4.27522522082045
H         0.80343254999178    6.06458541073744    2.85599238673441
C         3.44426465768133    5.51908579617394    3.82139123575194
H         4.29036431206205    5.04403791835679    4.33098800836639
H         2.63795329977879    4.78234448339939    3.74808649165824
C         3.87586311504974    5.98405126459900    2.44019960396947
H         4.34189997496812    5.16854670703773    1.88910458190163
H         4.60425723270777    6.78815530578186    2.53481767184125
H         3.02906849997561    6.35089896393292    1.86413890857424

