85
CSD_code = ZAVHOW | q = 1 | S = 0 | Stoichiometry = C36H38AgN6O4(1+) | MND = 2
Ag        8.99749916068839   12.66670485408819    3.58559102138489
N         9.42406452817369    9.70689671136056    4.65575307175371
N         8.76028099719588   11.02319392148588    6.24280960999960
N        12.70569230112349   14.73277874406864    9.65651525102410
O        13.63741185772384   15.08403281852224    8.96943423649951
O        12.61098453569519   14.89328427833764   10.84983024347185
C         9.49495850011476   12.84921320413657    7.68887169021913
C         9.40897714558496   13.13201084755902    9.04642352101990
H         8.51324378429236   12.88349721572164    9.59504515111814
C        10.46153309167531   13.74548077155950    9.70006039421566
H        10.41253525051365   13.97847873573564   10.75260148337755
C        11.60459216720874   14.07002356201471    8.98473564454563
C        11.71199786099098   13.78493050709282    7.62977362689826
H        12.61806380229161   14.04803798891460    7.10556624416749
C        10.65296752735170   13.17571173004665    6.98977936431416
H        10.71959114349297   12.95280738340452    5.92833511922977
C         8.34388232980860   12.20473642966497    6.95426756968099
H         7.54507350807126   11.94026086978327    7.65158456038742
H         7.94284958460988   12.91507540788268    6.21563657329338
C         9.03723470748637   10.96834490684122    4.92206340765053
C         8.97706936417369    9.79764253595580    6.83237009538227
C         8.85792230755697    9.35098802415311    8.14104388620103
H         8.55108931961695   10.00746866230831    8.93893628902404
C         9.15779367732933    8.02517488832307    8.37825970561067
H         9.07817224312118    7.63714665905025    9.38115951411376
C         9.56469740681309    7.17008866823677    7.35187780858930
H         9.78704424936005    6.14138761322756    7.58663243327160
C         9.69128693255374    7.60770429815243    6.04944981068665
H        10.00761722492101    6.94050105254888    5.26413175000022
C         9.39358323469929    8.94113906621685    5.80075688752375
C         9.74555352244051    9.20265039074711    3.34473021045824
H        10.55754785619989    8.47751319530466    3.43712851342998
H        10.09196386083639   10.04447600644602    2.73458974188394
C         8.52453714792691    8.54599395552784    2.69321117760555
H         7.76220012498340    9.31125299966201    2.52010916742192
H         8.10928311109940    7.81238329712397    3.38777251854213
C         8.86201802272941    7.84729123945570    1.37726205353924
H         9.63093265150084    7.09324369653415    1.55400460248995
H         7.96732917959587    7.32893403217792    1.02938711314299
C         9.33449912954329    8.80391530795202    0.28896008253105
H         8.61408670412421    9.60662794454170    0.14176847469095
H         9.44346078478796    8.27063653086470   -0.65124734057595
H        10.29761891596983    9.24246672152853    0.53720979905624
N         9.42405372919719   15.62652528732299    2.51541228605491
N         8.76031150090327   14.31018188752790    0.92837031560213
N        12.70567496224802   10.60071098579740   -2.48571146991580
O        13.63737092103426   10.24925641221168   -1.79867554072974
O        12.61096544817658   10.44038549738903   -3.67905560953027
C         9.49510686008160   12.48430514828112   -0.51784502718906
C         9.40899941871581   12.20144823654568   -1.87537579931784
H         8.51318308875958   12.44983264503495   -2.42391398950536
C        10.46153396497743   11.58803337193751   -2.52910053872569
H        10.41240598113355   11.35490429951520   -3.58160118690775
C        11.60468528847782   11.26357753742706   -1.81388159811945
C        11.71224218230486   11.54879882679728   -0.45895173693809
H        12.61839361944815   11.28581110592620    0.06516563630160
C        10.65324098524156   12.15797517381908    0.18112473731340
H        10.71998214195486   12.38099692726093    1.24253009308865
C         8.34402243823085   13.12861624422115    0.21689519371240
H         7.54509886922354   13.39299620692090   -0.48032955269136
H         7.94317466896518   12.41817671204423    0.95553610721554
C         9.03724258810518   14.36506473968188    2.24912060424251
C         8.97709225613114   15.53572380124425    0.33878834228281
C         8.85791312869846   15.98233902184704   -0.96989671576242
H         8.55101387981072   15.32583793996529   -1.76774626149249
C         9.15780025954103   17.30813892343142   -1.20715792672102
H         9.07813584151264   17.69614801903355   -2.21006110417911
C         9.56473169686228   18.16324624386308   -0.18080167825904
H         9.78715852090762   19.19191896535690   -0.41560026201494
C         9.69132131302222   17.72567404410779    1.12164091174088
H        10.00771180087075   18.39288885332837    1.90692349727565
C         9.39358372500832   16.39225563338967    1.37038705504288
C         9.74554585386395   16.13081279142031    3.82642143181536
H        10.55762527803695   16.85585637707265    3.73400969217356
H        10.09183792265572   15.28898321765846    4.43662232544910
C         8.52456535160989   16.78763080357903    4.47785455561604
H         7.76213280912746   16.02247257780194    4.65098785140995
H         8.10941272560784   17.52125112841108    3.78324200850274
C         8.86210548800974   17.48639580951449    5.79376049149991
H         9.63109990966633   18.24036486276465    5.61699835663583
H         7.96745133563216   18.00485857158258    6.14157021021636
C         9.33441292939284   16.52980638112483    6.88216141797170
H         8.61393713522790   15.72714620288903    7.02936754695070
H         9.44336012484601   17.06314516186571    7.82233780468003
H        10.29752130078607   16.09117974885872    6.63399544635219

