97
CSD_code = ZAVHUC | q = 1 | S = 0 | Stoichiometry = C40H46AgN6O4(1+) | MND = 2
Ag        7.06970245918204    4.18636172141068    8.37754768346550
N         8.10253603004205    4.62974313486565    5.45150474246120
N         9.63218462118845    5.24797428193460    6.85642823278014
N        13.40578959859401    1.15727749147375   10.04484762062977
O        12.78681588743107    0.19654957541518   10.44467611125660
O        14.60787893469978    1.27021171222339   10.04899699876337
C         8.36510552403217    4.79113935683453    6.76186946193789
C         9.19432093810335    4.98897300412416    4.69306317340183
C         9.42177779526461    5.01136754269558    3.32357851799160
H         8.66073942048211    4.72002204170272    2.61794014459846
C        10.66893195110787    5.42439857165672    2.90204506313268
H        10.88569837015986    5.45595573730980    1.84621646273607
C        11.66180874512233    5.80276205168806    3.80805458603428
H        12.62236418269044    6.11513236579961    3.43054741431282
C        11.44465106535796    5.78597153858894    5.17062495163401
H        12.21860864772922    6.07472816834373    5.86290327892843
C        10.19102941951323    5.37693627521161    5.60367902847482
C         6.82619383321478    4.21570907020443    4.92680290596722
H         6.32904084483243    3.60686955204010    5.69501147797319
H         6.99007453084834    3.59202132495869    4.04534190315985
C         5.93977241571668    5.41388939974670    4.57725181227459
H         5.90071235629108    6.08705648134480    5.43836923474235
H         6.37959997305468    5.96375245275105    3.74347074136731
C         4.52480895809107    4.97081269070060    4.21468125533474
H         4.07811287550851    4.45416297115525    5.06950176591990
H         4.56657867050944    4.26199502065112    3.38512869098565
C         3.64129656771318    6.15232065602261    3.82152285670827
H         4.04707565926213    6.62598933398063    2.92597914727485
H         3.64887326661889    6.89793992957679    4.61922047577261
C         2.20012838951407    5.72671776546094    3.55181848625365
H         1.78763822604893    5.25969020375366    4.45138706127300
H         2.18598919727217    4.97483781871561    2.75995360316091
C         1.33493839323430    6.91172992235362    3.14108828692075
H         1.37283522187724    7.69714980207343    3.89261404079499
H         0.30021197511576    6.60431109780199    3.01396534294100
H         1.68566894263900    7.32938131492305    2.20078860003217
C        10.30977859636741    5.55476311939138    8.09303152345845
H         9.54375173171216    5.79400571078500    8.84337414065742
H        10.93501466598471    6.43760788753165    7.94170764692155
C        11.14495348962285    4.39683830583316    8.58716540366103
C        10.52466769651029    3.19327206003493    8.90806988021996
H         9.44512842842364    3.09791444751529    8.79590079704567
C        11.26014369703916    2.12335192256151    9.37244923319754
H        10.79681474598267    1.18122457391735    9.62109610010683
C        12.63282911224682    2.26747334558490    9.52617938569002
C        13.27103003678199    3.45721839965999    9.20788449174341
H        14.33933500093037    3.53581697687206    9.33932888457176
C        12.52144069421222    4.51886215653222    8.73541931597441
H        13.01142702622527    5.44998155693660    8.49503882130102
N         6.03663830824670    3.74293285889279   11.30353078024091
N         4.50711537867248    3.12474577151961    9.89844535361823
N         0.73388867657955    7.21547320709976    6.70962229277113
O         1.35294267983301    8.17559847263843    6.30849660639790
O        -0.46823893172367    7.10282671412707    6.70607346371758
C         5.77416471458181    3.58163803391578    9.99313522136653
C         4.94481031779991    3.38359732916477   12.06186299787333
C         4.71721806519808    3.36116031925672   13.43132548094387
H         5.47815384637308    3.65259483606726   14.13703926050651
C         3.47006816386012    2.94799402365855   13.85273878270392
H         3.25320963312666    2.91640339972890   14.90854689216228
C         2.47732865020226    2.56950276958029   12.94663264254562
H         1.51680471975486    2.25691729683008   13.32404107819502
C         2.69460072438011    2.58638531609830   11.58408248375077
H         1.92073981339178    2.29753944801342   10.89173153165079
C         3.94819590504554    2.99562490932621   11.15114144233061
C         7.31300102160497    4.15682586095590   11.82830740692497
H         7.81017081171633    4.76578382566051   11.06020547536158
H         7.14916660412723    4.78034591456613   12.70989264511585
C         8.19935755552662    2.95851572433165   12.17758073325279
H         8.23812311547100    2.28540991224357   11.31639916530573
H         7.75964558662421    2.40864850654911   13.01141967960559
C         9.61448526372992    3.40132300315908   12.53985939322806
H        10.06107718433790    3.91795598710669   11.68497375730096
H         9.57306512831153    4.11006953457679   13.36949033719845
C        10.49780238850080    2.21955043264957   12.93266976188170
H        10.09209770498409    1.74586637599259   13.82824001554538
H        10.48984660989235    1.47404295846551   12.13486787114828
C        11.93915741465595    2.64467200213073   13.20211557972885
H        12.35159248325879    3.11175814166478   12.30255403458751
H        11.95372105652894    3.39638052573554   13.99413259330841
C        12.80405452634261    1.45929399764668   13.61240975423292
H        12.76565035528885    0.67399983818278   12.86077458372017
H        13.83893097204729    1.76631703662024   13.73926847792755
H        12.45344392295471    1.04162898091138   14.55275045968038
C         3.82968394479053    2.81795759283506    8.66174369309660
H         4.59582301343143    2.57871393354700    7.91151639327083
H         3.20442588030936    1.93511698442594    8.81299121261246
C         2.99457358212493    3.97589864170449    8.16754140918352
C         3.61494904812913    5.17931328062935    7.84625992881155
H         4.69452059221352    5.27458121800582    7.95823322806971
C         2.87953365583623    6.24921865278387    7.38173535915304
H         3.34294140306391    7.19124165415252    7.13283772900317
C         1.50680926888462    6.10523202438570    7.22827345023143
C         0.86850980212098    4.91563571853411    7.54692338250925
H        -0.19983709751379    4.83716928782298    7.41577952192224
C         1.61804255372299    3.85401852764798    8.01954263759523
H         1.12798517162457    2.92300737574696    8.26019723276324

