119
CSD_code = ZAVJOX | q = 0 | S = 0 | Stoichiometry = C54H54MoN6P4 | MND = 6
Mo        4.49545051269016   13.90380410145195   -0.00024041118495
N         7.21003085943490   12.59958247219168    2.62170065806948
N         2.82084221025424   13.76564212816944    0.77599077079239
N         1.78313674037179   13.67108876072053    1.19831621402173
P         5.70588017510802   14.74609763518049    1.89352950113234
P         5.14908403188925   11.82954309327923    0.94198004666002
C         5.95842396952056   14.97472584240126    4.68520655367351
H         6.94613779893640   15.37289103355942    4.49863050378127
C         5.51252836081656   14.85323659843054    5.98615797323814
H         6.16169121872258   15.13195951141348    6.80448916065414
C         4.23377157983482   14.38341925324517    6.24574725878628
H         3.88841316777454   14.29229960905141    7.26549870891031
C         3.40309554374732   14.04159772590507    5.19499826072831
H         2.40249181285978   13.68172983518494    5.38518921024926
C         3.85401220619758   14.15243326951792    3.89043534941317
H         3.20176380773558   13.87116628423137    3.07961866390067
C         5.13480155719123   14.61255380500807    3.61977183722558
C         7.37860006151726   16.82470129019447    1.07625470720727
H         7.84289815118884   16.07976197443569    0.44319102158751
C         7.84672255543901   18.12687385119897    1.05458725988978
H         8.66742228474484   18.39078129730348    0.40255072756936
C         7.26646351929961   19.08840517669217    1.86368480234544
H         7.63128072465192   20.10489723705538    1.84454776927332
C         6.22196999026701   18.73924123891112    2.70277736672840
H         5.77074009047546   19.48273129202642    3.34370253557789
C         5.75346275903745   17.43911355848640    2.72831849741617
H         4.94515194021591   17.17124835983701    3.39332896607024
C         6.32333186160532   16.46689481381226    1.91241483492867
C         7.36548686706257   13.93706123226316    2.09229471217262
H         7.90344785804310   13.93356203448373    1.12756344990496
H         7.94939671990135   14.53833938032060    2.79736072879163
C         8.38967915188655   12.17734742889180    3.35506430656223
H         8.22267839995803   11.18130178494200    3.76536718386469
H         8.56020202132433   12.86435075891555    4.18365260096081
H         9.29106496592286   12.14887561647103    2.72478080724044
C         6.87469157253362   11.65232185609337    1.58358013064818
H         6.95139552243880   10.63175970000364    1.98376739396932
H         7.55871365294409   11.72617305138188    0.71183191743060
C         4.93054371778509    9.07326546291432    0.22334422284364
H         4.42323111193110    8.89477018916243    1.16111719076884
C         5.20996397358287    8.01531303166847   -0.62342996529766
H         4.90979805355430    7.01495378196056   -0.34574607718750
C         5.88494587880428    8.22969422807000   -1.81335460249943
H         6.11629914133957    7.39645222968939   -2.46112077433778
C         6.26132500072618    9.51337479780785   -2.17244110872805
H         6.78554171092309    9.68618006807304   -3.10182195124398
C         5.95806444902813   10.57558545432581   -1.34204225878077
H         6.22617012400598   11.58611808598959   -1.62913857257066
C         5.30086859447096   10.36376217961119   -0.13422805920330
C         4.63359352436633   11.22504819747193    3.66182996917214
H         5.62299509010066   11.58914275698602    3.89158870692474
C         3.79885305087815   10.79834306371033    4.67987745445795
H         4.15397429126326   10.81220181148053    5.70073544794691
C         2.51324933767407   10.36689481360970    4.40047996667644
H         1.86520958709098   10.04054118323996    5.20129524983771
C         2.05768760202089   10.35876295554806    3.09167803853370
H         1.05369787442515   10.02769421195952    2.86779737648711
C         2.88916767672960   10.77799062069815    2.07165035420797
H         2.55277095851178   10.76527894994139    1.04398814681938
C         4.18599190628677   11.20676287375878    2.34494679535608
N         1.78484411691420   15.20786721384344   -2.62665492373372
N         6.16982609799978   14.04355275600489   -0.77665227930997
N         7.20721263568582   14.14062063888238   -1.19919533573009
P         3.28442984513397   13.05987154445199   -1.89292754869194
P         3.84390301441937   15.97798493718507   -0.94378896956947
C         3.03336102111212   12.82307374178123   -4.68428566476272
H         2.04399230669311   12.42916525413764   -4.49746465398665
C         3.48131653560913   12.93796244840847   -5.98514853636217
H         2.83222448599519   12.65830618668379   -6.80321516388701
C         4.76205898289135   13.40219876252282   -6.24496308454957
H         5.10908823634430   13.48788410349758   -7.26462136088948
C         5.59251867855365   13.74549305231564   -5.19451003872451
H         6.59456608350964   14.10126153101010   -5.38483148416899
C         5.13958438359983   13.64127483625997   -3.89011166277791
H         5.79162632676543   13.92373162498469   -3.07956436609966
C         3.85697577955479   13.18633105792113   -3.61922571795718
C         1.60645300411627   10.98733426882778   -1.07030381334016
H         1.14372917196731   11.73490838736466   -0.43920244848363
C         1.13504877925244    9.68640269865296   -1.04543893932499
H         0.31354753811743    9.42626586740399   -0.39290481014045
C         1.71293292673302    8.72137930389153   -1.85206170775790
H         1.34545494879261    7.70589263920101   -1.83052754493357
C         2.75842300837065    9.06583215988189   -2.69185975613060
H         3.20781215715189    8.31967864223153   -3.33097940507079
C         3.23025225332327   10.36469404352053   -2.72053210412601
H         4.03944844873580   10.62868193046813   -3.38598877934649
C         2.66281697502974   11.34043156882450   -1.90713032969024
C         1.62655166139920   13.87177074537443   -2.09463240181413
H         1.08814205438376   13.87833707670640   -1.13016309053737
H         1.04184483034828   13.27012239449060   -2.79872747897890
C         0.60698403397116   15.63065821850270   -3.36255696262832
H         0.77668101441116   16.62529321009903   -3.77516143856827
H         0.43600585235322   14.94192859375491   -4.18960905617952
H        -0.29510435817402   15.66264113552393   -2.73344625491815
C         2.12010701488022   16.15675067092930   -1.59000656140296
H         2.04632764565985   17.17652882410495   -1.99275109896699
H         1.43406350085046   16.08625690345812   -0.71953063975013
C         4.05643066383542   18.73540130226943   -0.22810778834840
H         4.56213218970380   18.91417647977556   -1.16671443672255
C         3.77489803070967   19.79357345514613    0.61768295240362
H         4.07197304825426   20.79445385556077    0.33855312448944
C         3.10157003455525   19.57872436743664    1.80847160226516
H         2.86855367213609   20.41209162133391    2.45547975039375
C         2.72895893949881   18.29447001298893    2.16935203109977
H         2.20594070009498   18.12133824042748    3.09934148102142
C         3.03451421887721   17.23209531311781    1.33999120947436
H         2.76942629368012   16.22114113525639    1.62846860977246
C         3.69013351511755   17.44427440439273    0.13141497451607
C         4.36865684545057   16.56998011847117   -3.66360452982276
H         3.38121812802498   16.20125704795623   -3.89466241113832
C         5.20596827298316   16.99296111440929   -4.68107386730569
H         4.85500630666034   16.97117795892930   -5.70323707423285
C         6.48893019425933   17.43069759574778   -4.39928702670582
H         7.13906453005991   17.75418585418294   -5.19956916963739
C         6.93908019716938   17.44909734483073   -3.08872305043143
H         7.94090493197266   17.78543876101368   -2.86298813621441
C         6.10508660862310   17.03338482397356   -2.06928122712776
H         6.43735822245757   17.05385822276132   -1.04041167412135
C         4.81094458437841   16.59820715655535   -2.34506746069891

