137
CSD_code = ZAVJIR | q = 0 | S = 0 | Stoichiometry = C66H62Br2MoN2P4 | MND = 6
Mo       -1.01024446785158   -0.00021601070887    4.47902345375425
Br       -1.04136592251260    1.19229237178425    6.80469706196833
N        -0.09275221703214    2.92809475323909    1.92169142470698
P         1.01825257839854    0.96494345919207    3.45024029404141
P        -2.15061761259423    1.84569210835773    3.45926430870957
C         1.57493516002835    3.05814351830419    5.23699576457341
H         0.61883557299660    2.83770373587605    5.68384910704615
C         2.33595524276976    4.09046961858570    5.75954687272778
H         1.95986996583529    4.65010705791004    6.60327174752005
C         3.56897008494592    4.38893826512594    5.21189813521408
H         4.17310122038584    5.18301599076144    5.62616499972508
C         4.03005734085350    3.66235070376681    4.12484580775986
H         4.99165226201827    3.89043024949765    3.68867697431879
C         3.26584961252925    2.64421502663169    3.59296460296208
H         3.64439646785044    2.08938562862689    2.74521134552334
C         2.03160738777427    2.31924304851157    4.15580543403367
C         3.45504689050844   -0.35432537498546    3.81382616829655
H         3.48948082877025    0.18380073799340    4.74894669665953
C         4.48865638795744   -1.21002072492953    3.48400628495014
H         5.30545709776548   -1.34860479453797    4.17760164594192
C         4.47703648873980   -1.88042434376050    2.27166568443286
H         5.28528246504072   -2.54820404126417    2.01154395033727
C         3.42431379810640   -1.68292897005564    1.39526829191239
H         3.40642669946881   -2.19392828273068    0.44369157273805
C         2.38130327354449   -0.83556365295133    1.72873608980542
H         1.56719174054319   -0.72480361846417    1.03001024634216
C         2.37994276685821   -0.16110944882989    2.94749477720903
C         0.75285674093337    1.76128139684100    1.79491412294125
H         1.74444024249871    2.07050946703702    1.44724836726692
H         0.33264156160605    1.03966584325349    1.07412306815537
C         0.22745190393276    3.93675707537663    0.90863954264619
H        -0.53699260961908    4.71727600463171    0.96966123269881
H         0.19144243322194    3.50024498049523   -0.10395289884946
C         1.72635527261343    5.50738597685603    2.16185939315182
H         0.87591310309761    5.78015570315590    2.76861649332401
C         2.95160616376278    6.10679050935798    2.38389982847963
H         3.05489977670816    6.84401603441929    3.16625241966825
C         4.04257771228370    5.76901236329306    1.60087068146496
H         4.99859116308870    6.24281296453491    1.76886041635545
C         3.90207938783341    4.82610705378543    0.59844847898492
H         4.74846449503964    4.55793722379006   -0.01719093021124
C         2.67346431729438    4.22867816334928    0.37583402357148
H         2.56700089447988    3.50568962554355   -0.42205422420017
C         1.57286801744361    4.56434689838498    1.15321124795951
C        -1.49100351012339    2.56605474792726    1.87932963497592
H        -1.70996278760874    1.83315759674325    1.07552296780011
H        -2.09670159697739    3.46150181622748    1.68974980208330
C        -4.22877814833029    0.44818364268275    2.25579630791738
H        -3.58965180749959   -0.41646915774074    2.37556391212336
C        -5.44406205379807    0.30884977617889    1.60746218271030
H        -5.73443554158352   -0.65658992069726    1.21887044411141
C        -6.28293651614868    1.40054130604954    1.46898181424205
H        -7.23589727163002    1.29354033961358    0.97145974549348
C        -5.89552377483941    2.63440650417349    1.96746180851179
H        -6.54645941110924    3.49021523496440    1.85836044584956
C        -4.67381683034885    2.78042104555860    2.59661173217918
H        -4.37593460825090    3.75024019287136    2.97152144227018
C        -3.83454964876383    1.68157540207990    2.76090952447957
C        -1.27733146939973    4.30050980490011    4.45078420607566
H        -0.44339197778046    4.17161305377436    3.77549084756283
C        -1.33878829327108    5.39218813954345    5.29768559751232
H        -0.54853846414871    6.12977412726450    5.27867010881072
C        -2.40010475203274    5.53475850449459    6.17572019988761
H        -2.44154371513852    6.38418933451315    6.84181212817088
C        -3.40511490275351    4.58163955650885    6.20437073914394
H        -4.23289253146959    4.68313490652664    6.89100958709357
C        -3.35012744824154    3.49003587814908    5.35941787782014
H        -4.13308272882716    2.74640380471553    5.37860765886093
C        -2.28944000627664    3.34700875827313    4.47009081823303
Br       -0.97788371443147   -1.19116195707969    2.15379865117302
N        -1.92631696870982   -2.92805539472572    7.03492729200160
P        -3.03760018791682   -0.96510237435752    5.50637382365263
P         0.13182728655545   -1.84573595420043    5.49698772728596
C        -3.59404815863195   -3.05819107120668    3.71964153763173
H        -2.63791363658855   -2.83767163996242    3.27283580167670
C        -4.35502715627220   -4.09052004660623    3.19707787890959
H        -3.97890022831047   -4.65014057422785    2.35336442472171
C        -5.58808225754397   -4.38895642492811    3.74467585367183
H        -6.19221740245556   -5.18299440781694    3.33036440643670
C        -6.04923237326869   -3.66238379085721    4.83171500069311
H        -7.01085218639596   -3.89041608151479    5.26784088933588
C        -5.28504367511521   -2.64429670109226    5.36364434872123
H        -5.66358646671833   -2.08945193132431    6.21139296626643
C        -4.05083542547441   -2.31936070590130    4.80079921552117
C        -5.47416017235473    0.35446148257525    5.14299174216101
H        -5.50870979572530   -0.18371750399665    4.20790896700486
C        -6.50778320207702    1.21007092550122    5.47295333728234
H        -7.32462251291746    1.34866940164197    4.77941040790928
C        -6.49604372105343    1.88048302157841    6.68528870889638
H        -7.30422226992520    2.54832873094178    6.94543585213724
C        -5.44321238907496    1.68303233020121    7.56156925694919
H        -5.42522282429118    2.19406223467223    8.51312485358646
C        -4.40015493338319    0.83578237280104    7.22793779554526
H        -3.58598810375969    0.72497634429827    7.92660098025685
C        -4.39892629233830    0.16135709037143    6.00916340339256
C        -2.77184061384464   -1.76119705756194    7.16176154820817
H        -3.76341847349501   -2.07036496159869    7.50946775607224
H        -2.35156435893447   -1.03958146822235    7.88253041626405
C        -2.24656927814116   -3.93667154188532    8.04804210518081
H        -1.48223736766623   -4.71729214873581    7.98696848598788
H        -2.21041876340332   -3.50017134296032    9.06063613081456
C        -3.74580378476054   -5.50716220693490    6.79502580295661
H        -2.89545386621890   -5.78005993375835    6.18819870049329
C        -4.97116076291456   -6.10638957445608    6.57308310787706
H        -5.07461918749982   -6.84360881914676    5.79074729905709
C        -6.06202694633795   -5.76844259671317    7.35618491100792
H        -7.01812443728321   -6.24209917548236    7.18826568974357
C        -5.92131644154917   -4.82554138518514    8.35858017494599
H        -6.76761725963576   -4.55724567059786    8.97428148668018
C        -4.69259387630777   -4.22829170018970    8.58109877167531
H        -4.58597222045985   -3.50531820457730    9.37897793931815
C        -3.59209523057081   -4.56412539361669    7.80364409413986
C        -0.52805337542075   -2.56595169279587    7.07700220657011
H        -0.30903857421085   -1.83318605472250    7.88092721567319
H         0.07758751147466   -3.46142750400141    7.26662232642885
C         2.20980104147356   -0.44859175281225    6.70110125486476
H         1.57075696294481    0.41611295354858    6.58138218809782
C         3.42508479723881   -0.30939425842440    7.34943517450004
H         3.71544024430771    0.65595980709905    7.73825260406539
C         4.26393055081711   -1.40113155869112    7.48771477602021
H         5.21684396478199   -1.29425785283994    7.98534544195195
C         3.87649611340009   -2.63490372822939    6.98902411893418
H         4.52740189657626   -3.49074853274150    7.09797717834911
C         2.65475857671277   -2.78079900704444    6.35991888296713
H         2.35687732431201   -3.75051931197970    5.98474695091249
C         1.81555218310019   -1.68189614724032    6.19580701269355
C        -0.74175302053740   -4.30073720638059    4.50595067684765
H        -1.57563222088506   -4.17184061719991    5.18132640996293
C        -0.68040874020736   -5.39238449730923    3.65900695024485
H        -1.47060471701528   -6.13002340645905    3.67817081419687
C         0.38077624734048   -5.53489250418795    2.78080405848394
H         0.42218518554176   -6.38434918295784    2.11474701731376
C         1.38575328400017   -4.58173893115715    2.75200589362571
H         2.21343837252383   -4.68318033445043    2.06525597554942
C         1.33087335439579   -3.49017782191025    3.59698689232921
H         2.11374518041324   -2.74646165258764    3.57765331493343
C         0.27034760061472   -3.34723208809539    4.48647358069440

