139
CSD_code = ZAVKOY | q = 0 | S = 0 | Stoichiometry = C66H62MoN6P4 | MND = 6
Mo        4.12877422514952    4.01989923176940    7.59177719566985
N         7.47957546687054    1.86781144700030    8.08216293781187
N         4.05340470260491    3.17852879085219    9.23935677637173
N         4.06013508619554    2.67198199298934   10.24299232585887
P         5.08344374637315    2.05412622578836    6.68327172869464
P         6.39558844613236    4.37973520042530    8.29713214464339
C         3.17298209987346    0.27420489866275    7.47704806839124
H         3.07391814655055    0.96892460755223    8.30351954269865
C         2.43961044780140   -0.89721009220958    7.46238863790908
H         1.78086347047880   -1.13263439148732    8.28645352318325
C         2.54533487567609   -1.76218567711224    6.38584404109766
H         1.97021069644473   -2.67669772348640    6.36753693387061
C         3.38829115027081   -1.45287742571966    5.33156114183907
H         3.46672586790470   -2.12417209641958    4.48825046675937
C         4.14538809779438   -0.29517840810059    5.35727228229044
H         4.81797910055889   -0.07194842615334    4.54086279653142
C         4.03766595779686    0.58010032550345    6.43109437623101
C         7.35965294124130    2.20083142524270    5.01677450917583
H         7.95488342269399    2.06777399216739    5.90696841540465
C         7.96841998821734    2.39912355960866    3.79022196102658
H         9.04747847666625    2.39762832489005    3.72229247759024
C         7.20509905894128    2.61211291651396    2.65468538556340
H         7.68636825077744    2.77104602052321    1.70026644251572
C         5.82236250207062    2.62718452452216    2.74576152877797
H         5.22202585641891    2.79907183357051    1.86382556555632
C         5.20999589103502    2.42538554765034    3.96751513761480
H         4.13197430464025    2.42541578241222    4.05200776619798
C         5.97194239196100    2.20007596131252    5.11122249596335
C         6.30734013700044    1.11392203812902    7.70372890985948
H         5.75691375223159    0.72526834965636    8.58708709543591
H         6.61014050293794    0.25122105521283    7.09325042826694
C         8.53904931829354    0.97626094750868    8.56272873316395
H         8.63380982351582    0.15883332864207    7.84106269419962
H         8.27209602639005    0.53929965346901    9.54059741288023
C        10.37633582431079    2.08116992426334    9.88722522335511
H         9.83599059240679    1.84821575313681   10.79502451794874
C        11.58430536255189    2.75294250836070    9.96218397104136
H        11.97502381902816    3.04952644944094   10.92480200545270
C        12.29056860697514    3.03986668207496    8.80727911879071
H        13.23597449128567    3.55918104935843    8.86628220310982
C        11.78270084302281    2.65416878978512    7.57807386116115
H        12.33210019299006    2.87002941383387    6.67342026100131
C        10.57232979494863    1.99023042746418    7.50472096590137
H        10.17916566321859    1.69260246720222    6.54396971133808
C         9.85705310665187    1.69447903314877    8.65827477541971
C         7.16604547182810    2.87820954274775    9.06776561654833
H         6.49468464264490    2.47936267019966    9.85070108550005
H         8.09435051999274    3.20490906172248    9.54822632363831
C         7.33839057233179    6.74772115171245    9.50750570274473
H         7.63148559958995    7.05327116830668    8.51388091595456
C         7.56748034145845    7.59035043702372   10.57875894517855
H         8.03039425956183    8.55215750582907   10.41193107421286
C         7.21083308426272    7.20424287470364   11.85961676773546
H         7.39208148850441    7.86271498010840   12.69646796507143
C         6.62535761949018    5.96683511077551   12.06256435434194
H         6.34755041008303    5.65573396069610   13.05981372254340
C         6.38895164501714    5.12340247660038   10.99061086200900
H         5.92555481101194    4.16136631549224   11.16522974874790
C         6.74452122913959    5.50368730593708    9.69831906929313
C         9.06679111523063    4.98278862218627    7.65630226799876
H         9.29325564733436    4.81177755759635    8.69947523213715
C        10.08198002403023    5.35803771829883    6.79924026101789
H        11.08820676030289    5.46302300242202    7.17844115900823
C         9.81326613552985    5.60437704018385    5.46158387909472
H        10.61147552212321    5.89841236445984    4.79515346067916
C         8.52018652446863    5.48118298746756    4.98765368815731
H         8.29852005987069    5.67477077297366    3.94818336624333
C         7.50074827751896    5.10829796580083    5.84688157202722
H         6.49590634483526    5.01257976432723    5.46759789075617
C         7.76102277468435    4.85091015862215    7.18567214174497
N         0.77853896421909    6.17251289924791    7.09960934298797
N         4.20381975142541    4.86071813867959    5.94393180290906
N         4.19690597864941    5.36650848281824    4.93993202801005
P         3.17401002247828    5.98594390236160    8.49950502020311
P         1.86144145651380    3.65988762377064    6.88760303054872
C         5.08608679103425    7.76398738974706    7.70522555989750
H         5.18501739536240    7.06864514944697    6.87928325469272
C         5.82044850713324    8.93479410158375    7.71943547646901
H         6.47987754836339    9.16901803365557    6.89557017477740
C         5.71484362051880    9.80064238320330    8.79528996923797
H         6.29075047664139   10.71466965018979    8.81326745889832
C         4.87101133253352    9.49280834117326    9.84930793929047
H         4.79263726425144   10.16480888977109   10.69206291672681
C         4.11302665870093    8.33567781237928    9.82406835952775
H         3.43985589455069    8.11357396009677   10.64030760866335
C         4.22063941285970    7.45950498723413    8.75096022830826
C         0.89710000056731    5.84412374111830   10.16580525750608
H         0.30208926712755    5.97756673782442    9.27553051578444
C         0.28799356286061    5.64790248120578   11.39252275896384
H        -0.79105596347358    5.65149123504507   11.46048543075843
C         1.05092844019880    5.43437455866038   12.52821892046368
H         0.56937032997265    5.27714370808320   13.48277278263978
C         2.43363401433739    5.41656647961995   12.43713330068601
H         3.03367493740313    5.24422702992748   13.31918076328271
C         3.04633841484169    5.61627183007688   11.21521340438396
H         4.12436113412209    5.61407732984702   11.13068880690432
C         2.28479930944231    5.84220564615303   10.07136455134957
C         1.95125759501522    6.92593332889274    7.47751740570222
H         2.50228828927506    7.31309248911735    6.59388164384446
H         1.64894479488675    7.78961372007979    8.08684953579658
C        -0.28006660097014    7.06438607186654    6.61769584126851
H        -0.37449258362599    7.88263968572493    7.33847105254193
H        -0.01237136175988    7.50012879487537    5.63948396996792
C        -2.11759163989511    5.95945167389310    5.29356511771327
H        -1.57663270620407    6.19098620557566    4.38576961953627
C        -3.32602716121300    5.28850320643999    5.21877347789385
H        -3.71649714027254    4.99112037309873    4.25630108631989
C        -4.03305708007459    5.00338496968131    6.37365933828497
H        -4.97880245218462    4.48467421814828    6.31478589923539
C        -3.52549933147817    5.39009206198735    7.60267355343550
H        -4.07551559105625    5.17569385302586    8.50730088346078
C        -2.31465749150639    6.05319509219152    7.67587092929648
H        -1.92174978670103    6.35161359211617    8.63648229322732
C        -1.59859221769268    6.34710205560727    6.52233630403292
C         1.09153574301886    5.16077960055106    6.11519975217339
H         1.76289229200778    5.55841402012347    5.33164047094569
H         0.16300585524164    4.83389020884260    5.63529939622870
C         0.91702568844509    1.29055455115894    5.68132706236085
H         0.62438312587697    0.98665511772618    6.67560251374518
C         0.68700362533401    0.44641864482146    4.61145964802123
H         0.22372533054236   -0.51492433537066    4.77994271627889
C         1.04323701201035    0.83041594907454    3.32985311038105
H         0.86129673884468    0.17073809871000    2.49410153623583
C         1.62915916178048    2.06725477648088    3.12471293098366
H         1.90661296964895    2.37667029517297    2.12683813572728
C         1.86631246241382    2.91227554930585    4.19524408721939
H         2.32976445771498    3.87399680741151    4.01900908340927
C         1.51122869061227    2.53407895211298    5.48826955685075
C        -0.80997416377561    3.05993804880673    7.53034381117126
H        -1.03668339854080    3.22960142282636    6.48700383605897
C        -1.82518129956589    2.68694641310133    8.38836243792955
H        -2.83167072463563    2.58244045121673    8.00972420557868
C        -1.55615833623929    2.44226105799088    9.72626382117090
H        -2.35439058387677    2.15004796363885   10.39346657451607
C        -0.26274554529335    2.56474324650546   10.19945030248147
H        -0.04080975449720    2.37234639406359   11.23908277222646
C         0.75670244407461    2.93543162315971    9.33927698633773
H         1.76179741619269    3.03059356824157    9.71801396759534
C         0.49611532775286    3.19126890390228    8.00026110300644

