87
CSD_code = ZAVKEO | q = 0 | S = 0 | Stoichiometry = C22H54MoN6P4 | MND = 6
Mo        0.98166761493969    5.02855669416687    7.45568208398031
N         2.59064162851032    3.91527344414940   10.94916528012344
N        -0.64204908568259    6.09279725734355    3.95494747960522
N        -0.49524779621975    4.71140670647072    8.53140862239272
N        -1.39164496984663    4.51663242773293    9.17795929872991
N         2.45860872229965    5.34408112222730    6.37928051311150
N         3.35486519789197    5.53035628770701    5.73006692487023
P         1.94823116728305    3.06090074196565    8.42564425076197
P         2.04580250010497    6.08416613432074    9.32088328736784
P        -0.05420023202851    6.96759059302714    6.51098623375532
P        -0.01423609509367    3.96008712141556    5.55514994883055
C         1.30491203210814    1.35618921805195    8.08100643292803
H         1.62022205315587    1.07038657202863    7.07686013700104
H         1.75680225538757    0.65250775703690    8.78665057222899
C        -0.21196543645963    1.31385064213765    8.19566422760656
H        -0.60458919330184    0.36239200371141    7.83756891376115
H        -0.64952340823539    2.11931855159092    7.60466272883226
H        -0.53048774725622    1.44566623680199    9.22761325956102
C         3.77837642397257    2.85404249478217    8.28611783230365
H         4.07916038530254    3.27474329007980    7.32098120645611
H         4.17052395552848    3.50885744342811    9.07321738162923
C         4.36352190576150    1.45609728503653    8.44108842886105
H         5.45018114120556    1.51319876992721    8.39312582083018
H         4.02701918908599    0.79419326178486    7.64654503391885
H         4.09499651588934    1.01739012398514    9.39950590033915
C         1.80607770042487    2.91303456408704   10.26309985659593
H         0.73724329809038    2.96270895028437   10.54521497869298
H         2.18777403461175    1.92430870419798   10.54282440756623
C         2.88654099818199    3.49621944222287   12.30821028755867
H         3.50039738180362    4.25278030800364   12.79715402388876
H         3.45159822853653    2.56438270063934   12.28161198047744
H         1.97887375813976    3.33984544990865   12.91090243384448
C         1.92126499427384    5.19715551559915   10.93664732302588
H         2.36629828195560    5.83819008992457   11.70497144794631
H         0.84085545115128    5.09282518811235   11.15936771017273
C         3.85619852984846    6.41385114715937    9.14112625013323
H         4.23749418084267    5.68418677644695    8.42166585539684
H         3.92266590170458    7.39781376028078    8.66212165161001
C         4.71163242170878    6.39177850366498   10.40092004583388
H         5.74364335123439    6.62622220610297   10.14299109386509
H         4.68821229741250    5.40721633704420   10.86052083419709
H         4.37373109403340    7.12887921930486   11.12660671780954
C         1.53335735318902    7.72409121932291   10.01659682208961
H         2.15165721715089    7.95167901794790   10.89168443384798
H         1.75763059641043    8.47267515144717    9.25522173954531
C         0.05536372362184    7.75264236938633   10.38135778561479
H        -0.30434480838713    8.77580243382086   10.48742615173876
H        -0.12857318157347    7.23368030334207   11.31928545835038
H        -0.52524851281018    7.25497757850062    9.60264197954873
C        -1.85718256284136    7.17183200637450    6.86418904429392
H        -2.25624314219084    6.16969999642655    7.04299181645432
H        -1.90311786793030    7.70776857345657    7.81952395292418
C        -2.70994510583527    7.88884651083821    5.82602374748238
H        -3.73574911672082    7.95963891977725    6.18554814802118
H        -2.71257452833396    7.33858877320775    4.88883600417060
H        -2.35075110011925    8.89941530446590    5.64211770656396
C         0.49683436744304    8.70458630019746    6.84972887294432
H        -0.10794812166919    9.39633433329560    6.25347440829222
H         0.28043882281056    8.90420423985861    7.90035485141076
C         1.97852221088590    8.89945088743774    6.55817546617614
H         2.35872865128595    9.80160030186345    7.03678579175966
H         2.16131236060092    8.98439710128104    5.48941344038877
H         2.54218474356409    8.04112204948229    6.92800920868958
C         0.05168332032245    7.13791197930161    4.67444015414598
H        -0.38281485745046    8.10580321386642    4.40299868218703
H         1.12941101096565    7.16082031703280    4.41801790997137
C        -0.95342431089757    6.51125618649969    2.59924444835924
H        -1.53729865299380    5.73245011915175    2.10841352475761
H        -0.05241802316705    6.70683418475955    1.99801114174365
H        -1.55439753752700    7.42028356810553    2.62753539594401
C         0.12640443084013    4.86793798792732    3.95066610515496
H         1.19578918445824    5.05342472125556    3.73544032275869
H        -0.27120585594739    4.21273402138094    3.16705607112738
C         0.60321733940258    2.34801915429059    4.87794916733531
H         0.28033091746436    1.55105337577307    5.54874588633120
H         0.14403991672384    2.16961692040140    3.90087304689546
C         2.11975937396709    2.35658723800228    4.75174071980594
H         2.49714009047372    1.36394013252002    4.50700854021314
H         2.56694506845561    2.68041431945527    5.69232957779043
H         2.44395818739806    3.04442306772254    3.97357802838719
C        -1.84751341173780    3.73515243753620    5.56784353655585
H        -2.14350109523266    3.54242172217312    6.60428501797826
H        -2.22841484241282    4.72513276640526    5.29003239915753
C        -2.45349471546018    2.67606076172855    4.65572014890470
H        -3.53927953696930    2.71083060610287    4.73484049130258
H        -2.12851571933894    1.67689892447158    4.93642317058238
H        -2.18964290816665    2.85047785854836    3.61498098390304

