61
CSD_code = ZAVQAR | q = 0 | S = 0 | Stoichiometry = C21H34MnN2O2P | MND = 5
Mn        1.93381111602767    2.21566804494652    2.20912669102708
P         2.56488277816846    4.18373234982819    3.10459295371543
N         1.95252706596946    3.32617395782095    0.59148343991306
N         2.46913872222247    0.85296371139371    1.01705463631084
C         1.88691917428908    5.37523688818387    1.85599278525347
H         0.84915676555000    5.56480748370961    2.15196928978678
H         2.41621134234293    6.33049578699423    1.80679493355660
C         1.88810259354219    4.66601639829924    0.53862339063147
C         1.84386533121834    5.34809173099331   -0.66383192895070
H         1.79003128884399    6.42644957796081   -0.66743178477918
C         1.87065883379928    4.63371794330108   -1.85600889888353
H         1.82702562151324    5.14640844624383   -2.80457304490330
C         1.97949413711334    3.25816204025601   -1.79575962442993
H         2.03432129516677    2.65859430623119   -2.69138263059917
C         2.02573478020831    2.64337509731451   -0.55048402077197
C         2.22752282422348    1.17763764902837   -0.37044367273565
H         1.33172777813087    0.65317722246561   -0.75164696403251
H         3.06971950389271    0.88223151489704   -1.01767508603729
C         4.44649369881767    4.47855987611203    3.00782728706886
C         4.95040124704138    5.84756737284322    3.45310329755492
H         6.01793810694334    5.91919562653977    3.24191158330880
H         4.81721137570640    5.99599954514467    4.52104168489794
H         4.45342391692559    6.65331470372226    2.91511506295299
C         4.83564025580908    4.26080509987101    1.54139015109283
H         4.42706613267105    5.03181414294472    0.88829607718511
H         4.49265459913300    3.28221162223936    1.19577719683965
H         5.92120890473639    4.28031175310094    1.44020161304482
C         5.11035957363413    3.36640764919380    3.82469319084347
H         6.17392164592833    3.31284239805751    3.59281313294291
H         4.65392199414223    2.40278296613331    3.57845116275055
H         5.00720910237736    3.52760552834224    4.89306297003126
C         1.88070354783951    4.92373428565207    4.70857878672997
C         1.85958465082878    6.45258761314478    4.75825764089057
H         1.50829147390127    6.76368438885794    5.74163951488707
H         1.17632186239016    6.86649843418027    4.02085746761559
H         2.84101272935238    6.88820827725301    4.60536626379710
C         0.43971811717408    4.41075671332135    4.80242016966040
H         0.42825660682777    3.32242940611851    4.86038352577064
H        -0.15440805867329    4.70807280273679    3.93957058030670
H        -0.03837463985283    4.81219271089209    5.69451564929977
C         2.65215187362591    4.36102360412441    5.90186240443710
H         3.63034649932866    4.82388579725796    6.00619050135449
H         2.76938218037284    3.28342891775600    5.79490486765991
H         2.09670517009226    4.54999302306862    6.81960483983774
C         2.69058583114169   -0.58863608340084    1.22227812478549
C         1.37502513061501   -1.24047774375265    1.68964760001038
H         1.01058393496407   -0.73892745798049    2.58533091777435
H         1.52626453640136   -2.29517629423786    1.90510376908646
H         0.61554942658191   -1.14714120179336    0.91553795675628
C         3.17221228904001   -1.35842138816437   -0.02396644954168
H         2.42806101286293   -1.37698828724926   -0.81663887784599
H         3.36703085038712   -2.38866623427411    0.26508162255817
H         4.10151124083005   -0.94429083891725   -0.41321925036100
C         3.77956981652790   -0.78943264474888    2.28956446960387
H         4.71400574097418   -0.33909945005268    1.95729938740761
H         3.94813041117228   -1.84996826414441    2.46112417548317
H         3.48900678277085   -0.33215755947185    3.22987742904945
O         1.91812900142837    0.88298752435166    4.80883755201699
O        -0.99230200269251    2.23509504435019    2.32586698064917
C         1.97646541051480    1.33893665794424    3.73712918441924
C         0.17057706718249    2.26080981306452    2.33170832131604

