48
CSD_code = ZAVRIA | q = 0 | S = 0 | Stoichiometry = C21H22ClNOPtS | MND = 4
Pt        0.96532787380199   10.37547627501473    1.97211879038286
Cl        2.31357895576849   10.81347826076032    0.03985015031476
S         0.44372548335974    8.50276939704128    0.86255217450753
O        -0.48986191749487    7.52547580152647    1.40000472369294
N         1.50247334235047   12.14375552174680    2.91883580008551
C        -0.22808025243955   10.21446953265539    3.58036668762144
C        -1.29100118650938    9.34010892442366    3.71905093722854
H        -1.46759759301020    8.57861342892907    2.97365904836131
C        -2.14150070389129    9.39325529614593    4.82653261476412
C        -3.24094172514797    8.49651028568020    4.96845110768121
H        -3.39543524773946    7.76467234101375    4.18874891553646
C        -4.06310507044402    8.55709440137838    6.04083083533132
H        -4.89588602299302    7.87501630643967    6.14045650201286
C        -3.85675803815149    9.51777511027336    7.07429400573006
C        -4.69135047151894    9.60085782347874    8.19001561747140
H        -5.52531189633025    8.91848684846851    8.27477287437422
C        -4.46105752937388   10.53992314017208    9.17840828778997
H        -5.11918544903019   10.58966316932695   10.03415276502822
C        -3.39388000466139   11.41400364329069    9.08237489230512
H        -3.21645743656678   12.14288418444691    9.86058788311277
C        -2.53442698099161   11.36731416742076    7.98432863860136
C        -1.41897354917460   12.24364167736629    7.85129621991352
H        -1.23864839744308   12.95946474769185    8.64148289090921
C        -0.59920886236550   12.18840476059913    6.77637595426600
H         0.24417388760008   12.86028621586764    6.71992821916226
C        -0.81483363343243   11.25315854183753    5.71755797141901
C        -0.00309645550018   11.17347414930583    4.57805394197838
C        -1.90896783115037   10.35702386966798    5.83612225909010
C        -2.76500634608299   10.41456102731376    6.96247201878638
C         1.19374412453488   12.06436173948836    4.36482802661596
H         1.04456103012606   13.07790452075184    4.75547709453308
H         2.05532145845377   11.62311207315467    4.87835069791586
C         2.90731152368459   12.51824837806461    2.73402120854636
H         3.12628340999221   12.60649076950085    1.67080754148474
H         3.55219035068464   11.74526629070285    3.15380230314258
H         3.11877451002252   13.47390594137204    3.22603366529839
C         0.64445671076548   13.15665253146823    2.28877704078699
H         0.82073547234451   13.16372271831895    1.21158301277944
H         0.86753978220326   14.15239423795518    2.68988958121434
H        -0.40428316366356   12.92169747000632    2.48283883482012
C        -0.13954710270175    8.86515511899497   -0.82204019709773
H         0.60192380320054    9.47532565089141   -1.32389713800072
H        -1.07858813983796    9.40262793535983   -0.73429613779335
H        -0.29584497375884    7.92067890522056   -1.33027710201681
C         1.95844783820801    7.58267429548575    0.45968504071411
H         1.67797894758498    6.70836218851504   -0.11617890565201
H         2.41690414316056    7.28190749878771    1.39664133109237
H         2.62188333355912    8.23509288667808   -0.09582862584243

