60
CSD_code = ZAVVOK | q = 0 | S = 0 | Stoichiometry = C33H16F5N3PtS2 | MND = 6
Pt        2.58586259666933   12.62675462085343   10.87495913228481
C         3.85990843978649   15.67100770528682   11.38982546790967
C         5.02963451991852   15.38836839152596   12.09284812655057
H         5.33397828423344   14.36948104244246   12.25265867756050
C         5.80861769705612   16.42937502202970   12.54671722140969
H         6.71574691912355   16.21196405768419   13.08932361445990
C         5.45251076464924   17.75565508756958   12.31254352973662
H         6.08289213258981   18.55121884552043   12.67814066277783
C         4.30555144214267   18.06318291547375   11.60932086881939
H         4.02196076024478   19.08479814335863   11.41231978917713
C         3.51901552193161   17.01820361185039   11.15558505741767
C         1.96122272887486   15.37206429397086   10.26562273796633
C         0.87033962295636   14.61707411263619    9.71340507643365
C        -0.20788552612610   15.21414798102772    9.05553522271642
H        -0.21558292098836   16.28545479888268    8.91195581186764
C        -1.24574743217081   14.42864822382549    8.60281267752042
H        -2.08090497256151   14.88106554425133    8.09033797690117
C        -1.21729140989395   13.05634927070508    8.81375256914298
H        -2.03570196297944   12.44395839583371    8.46682852352928
C        -0.14877550964434   12.45640332631551    9.46464222244276
H        -0.14803836864226   11.38639532166652    9.61250225007579
C         0.91445268615307   13.22580736919902    9.90932316392867
C         5.53973499406390   11.49109175051056   12.02589869483372
C         6.07636427495486   10.89442289188382   10.88686464084439
H         5.47205267613489   10.80295100259005    9.99800003299973
C         7.36530725211118   10.41124106717935   10.93758405110739
H         7.79317052602473    9.94963651954594   10.06121600462821
C         8.12600020070487   10.50111179622677   12.10241435270885
H         9.13498281445411   10.11901590183449   12.11033670849070
C         7.60118271768340   11.05489333508902   13.25315579508460
H         8.17389743227551   11.10656128637618   14.16551609611694
C         6.30501078735704   11.53879107075019   13.20792334766729
C         4.03812005729413   12.43280598586030   13.37733952817292
C         2.74540355906330   12.94980145714713   13.74684230489850
C         2.45807620832412   13.35681865915187   15.05071774429287
H         3.23346984233678   13.32314937418452   15.80343524536041
C         1.18898180568785   13.79597695825650   15.36200285730943
H         0.95671393289299   14.11282797202303   16.36746097462572
C         0.21105585593727   13.82019702714862   14.37845934445083
H        -0.78729408960225   14.15251277393841   14.62327986535787
C         0.49911355598906   13.42363595181461   13.08016551987790
H        -0.28893084032636   13.45296179740513   12.33918550063884
C         1.76894877097517   12.98253841053456   12.73055023015781
C         3.57161255895666   12.41390863034770    8.96945386214605
C         4.79663886328468   13.03399279634372    8.73644808848082
C         5.47387023927630   13.00371942737575    7.52324177659348
C         4.91804058507118   12.31922151228602    6.45142368331307
C         3.69976114669412   11.67601751190132    6.62872668063683
C         3.06179946351417   11.73363515724697    7.86436392351948
C         2.09163857520128   10.73867285611220   10.95778258535487
N         2.95788587578577   14.78060171940047   10.87347331945501
N         4.29361617029143   12.03338541306052   12.15991091842503
N         1.87275705485856    9.62055183932628   11.05800359020259
S         2.03259221959699   17.10879766839617   10.25609971487527
S         5.36205506171212   12.23977085883794   14.49458201728002
F         5.39775884976167   13.70036674521277    9.74990444881020
F         6.65459207278552   13.62914780370781    7.38771907262880
F         5.54710827775650   12.27809479248804    5.27032326842532
F         3.14582957608557   11.00774019324311    5.60775238238960
F         1.88951506171199   11.08295400335319    7.97058144722146

