60
CSD_code = ZAVYEA | q = 0 | S = 0 | Stoichiometry = C25H24ClN6OP2Rh | MND = 4
Rh       10.16071829688265    5.43064711851271    4.41609354293273
Cl       11.09206318278870    7.37611460096081    3.84152548179806
P         8.66661365827196    5.79073130980788    2.77570517114342
P        11.67073199073293    5.65258597135827    6.06563577748957
O         8.83605323967493    2.87933207545098    5.20886986621731
N         7.28124594099357    4.81131171290955    2.58755221208495
N         7.93603818910514    7.30226171455591    2.98791899137266
N         9.19522596088748    5.79397627874931    1.17253658940837
N        11.78286753276199    4.51330526855987    7.33700443387741
N        11.44166674280631    7.04766318298739    6.99202812228761
N        13.29022592485990    5.77849078216229    5.60511410361605
C         9.38014290835634    3.84751898899832    4.92040877616818
C         7.34297043648685    3.51819615829191    2.12175529070771
C         6.15105039074313    2.90871547430765    2.36136173272201
C         5.32751280579821    3.84779850723227    3.02870202275726
C         6.04937176009101    4.99208021086652    3.17179612957284
C         7.34341674499199    8.15824004680956    2.09012069662238
C         6.85239364779346    9.22696682787617    2.77401578145639
C         7.14663466464275    9.02947978344774    4.14618028067825
C         7.81007046877090    7.84806497286169    4.24681417025279
C         8.43738943712138    5.75013121983868    0.02112647612548
C         9.27688307355701    5.70921713228916   -1.04706412739329
C        10.60360738248363    5.72021991414571   -0.54764586801761
C        10.52310066704623    5.76488474164564    0.80728394408793
C        11.78915715372080    3.16330780789825    7.07865118913166
C        12.04924992323961    2.49462515330442    8.23400408582272
C        12.21454628758714    3.46731242881023    9.24911483861841
C        12.05573753750981    4.68965876165881    8.67245786772000
C        10.25409373854535    7.21629263764343    7.67649645097907
C        10.14729484824587    8.51948862098362    8.04757740037392
C        11.28972577990797    9.19215713496068    7.54593777521242
C        12.04772137808142    8.27594559706855    6.88585068078649
C        13.74851413943934    5.40462939867792    4.36362509146705
C        15.10598654054174    5.45955098322705    4.36490016403461
C        15.50703745019239    5.86604875477285    5.66233607414738
C        14.38001848761636    6.04279412050238    6.40284682367398
H         8.23190337519744    3.15481257150433    1.64074259386396
H         5.88177272746769    1.90639900411070    2.09331158597966
H         4.31973478514444    3.68644274759733    3.35635404237994
H         5.78264777829302    5.93026545278274    3.61890290679270
H         7.34122387025478    7.94815891472607    1.03877045065635
H         6.34274114837586   10.07069052588022    2.35213916983946
H         6.89737519961860    9.69281585951513    4.95042560231478
H         8.22229324169456    7.33553433869481    5.10613731029517
H         7.36525348984054    5.72970975234176    0.06117638033415
H         8.98905972748530    5.67459258757137   -2.07941934979740
H        11.50029027245184    5.69292945958748   -1.13408072987793
H        11.29184095070366    5.79025387036911    1.55871434747483
H        11.61436786833359    2.80176620894671    6.08160041685473
H        12.11489035471867    1.43175407936438    8.35604649649066
H        12.42389708041591    3.27551437007029   10.28296712070288
H        12.09578165626992    5.66898339881014    9.10795800846648
H         9.60499474516878    6.37593902817251    7.85165649274554
H         9.34980811692966    8.95947533987852    8.61332700580747
H        11.51367758996973   10.23329361989242    7.66728206026083
H        12.97058204087696    8.39215345853886    6.35207541469308
H        13.04824348524592    5.14022496051413    3.58790943320425
H        15.75636100942401    5.23741171621755    3.54243251595937
H        16.51561944749456    6.01120996317077    5.99619017820841
H        14.25896172694774    6.33602337820055    7.42804250627689

