94
CSD_code = ZAVZAA | q = 0 | S = 0 | Stoichiometry = C40H50N3Sc | MND = 5
Sc        4.07525937541626    0.96635387226578    2.68166854773097
N         1.87328464028348   -0.05648249375700    3.16801559350747
N         3.38231559759780    1.51349060213225    4.76731420908834
N         4.63086080250008    3.03712968465317    3.73364268251498
C         1.42943099633650   -0.50032132750511    4.29135178846669
H         0.57520855946725   -1.19185619950358    4.28508255415631
C         1.93045192188273   -0.18618877415420    5.59628614141947
C         2.90496586812840    0.82616942149382    5.83291411221027
C         3.36542875062412    0.99783863365493    7.15450597356523
H         4.15434138546463    1.71046504560616    7.34336461233699
C         2.85613323547397    0.25591918409624    8.19077341153046
H         3.23351166934939    0.40858210864123    9.19164337069004
C         1.86223819736605   -0.69596918027971    7.96484705033055
H         1.46029056868764   -1.26711784341798    8.78739630136598
C         1.41933901189199   -0.91136380390694    6.68293899420275
H         0.66912950602208   -1.66684541352823    6.49225382392429
C         1.17050310018262   -0.45430124194651    2.00328754323072
C         1.29096762967048   -1.75025822423117    1.48920849321147
C         0.56634636461127   -2.07847578684151    0.35048309486198
H         0.65265925875082   -3.06944999359671   -0.06812432296679
C        -0.26949674560005   -1.15965635584412   -0.25153844823086
H        -0.83794475493370   -1.43812392340129   -1.12646294490578
C        -0.37137614927598    0.12236426482780    0.25848522988312
H        -1.02097137877092    0.83116958172257   -0.22909001357773
C         0.35007191745458    0.49905832456219    1.37994459222648
C         0.26055413588208    1.89129246663931    1.96651296641146
H         1.24940055555988    2.13056497411528    2.39987953422428
C        -0.78046276595180    1.92093738643046    3.09087856430249
H        -1.75695941706705    1.63091548558732    2.70665960537069
H        -0.85691259075735    2.92375013848310    3.50691552019413
H        -0.50859238183961    1.23697236831078    3.89231506391879
C        -0.06501216602949    2.95998550876481    0.92526608193513
H         0.61298785811816    2.88705195415593    0.07880696282355
H         0.04341822035528    3.94640513368195    1.36994723323940
H        -1.08857523526583    2.86773551849700    0.56907797896492
C         2.24414759640902   -2.75600438058990    2.09463826499576
H         2.65643280013421   -2.34590496345602    3.02351461339320
C         3.41530557328754   -2.98094003258954    1.13359503648359
H         3.06766752835352   -3.39024129351228    0.18802544455371
H         4.13119010380125   -3.67409119424024    1.56931194705131
H         3.92108546469843   -2.03238836864009    0.94154097394664
C         1.54461314674360   -4.07454671137785    2.43012623531711
H         0.68868769266344   -3.90018410550642    3.07917638986331
H         2.23482442473114   -4.74116913149132    2.94246145660696
H         1.19489916172235   -4.57481873359149    1.53086732256557
C         3.94692172147229    2.72929699858937    4.80760823247865
C         3.70569462580591    3.67631092832387    5.92406166479884
C         4.74156565311473    4.40426228725513    6.50029214008194
H         5.75417159821762    4.26508648963126    6.15388268394593
C         4.47746015114465    5.29090781919451    7.52875246309224
H         5.28777484050512    5.85049344175868    7.97222187714535
C         3.18260603459271    5.46213704865739    7.98845443427996
H         2.98035481299432    6.15644776661696    8.79055537283269
C         2.14669441540796    4.74126072785390    7.41666497647962
H         1.13483690231990    4.87362716492017    7.77045164571403
C         2.40458661515289    3.85324672785467    6.38989248696705
H         1.59727190320596    3.29468203360109    5.93733184796432
C         5.25349982724644    4.28553868248583    3.56107435177903
C         4.52049983462117    5.44583622872713    3.28089977617665
C         5.20571977572599    6.63605162898188    3.07681365071788
H         4.65170440240936    7.53834161525598    2.86537040755131
C         6.58316847000672    6.68907526826866    3.13379193196229
H         7.09804831647933    7.62523307830247    2.97535855924850
C         7.30340610212184    5.53387218681017    3.37927335503154
H         8.38098922558083    5.57964185281906    3.40184693107004
C         6.65894861375881    4.32897925713315    3.59958186719697
C         7.43788890278602    3.05355188418407    3.83680154594268
H         6.80095707002129    2.36467380061148    4.40702572911257
C         8.72864325005836    3.26729994592797    4.62774863616440
H         9.47949781548673    3.77644050814684    4.02859566790281
H         9.13843381243067    2.30489214131131    4.92740866780154
H         8.54307721825398    3.85573199199737    5.52433862793333
C         7.74034859345764    2.39946665775564    2.48353437932308
H         6.80438390335819    2.15807601285253    1.96528605583496
H         8.30504308619485    1.48038525713323    2.62564033330832
H         8.32330618293305    3.07603456411825    1.86134932630712
C         3.01752072645383    5.41900959016296    3.12085842059787
H         2.65061300455967    4.41804956416550    3.37594522201495
C         2.33182375260047    6.43299754526468    4.03903050236399
H         2.66501483276299    6.30904871722789    5.06669080857117
H         1.25223345274671    6.29802203114252    4.00765948286541
H         2.55410943190812    7.45052649252031    3.72736911103125
C         2.65760910309685    5.69250407195698    1.65760988591298
H         3.04262944258066    6.65878704969143    1.34056384292710
H         1.57764919127358    5.69503940615804    1.52595186293740
H         3.08654454900443    4.92528515758390    1.01661615834024
C         3.72475466888740    1.61609742298480    0.53191420058540
H         2.97436654201047    1.00843008181902    0.00170352410489
H         4.61203621152533    1.57325451564678   -0.11768366378703
H         3.36528032292032    2.65216358228113    0.42621784554326
C         5.61746842964896   -0.62354734045100    3.24248923139423
H         6.31317425210856   -0.26927269539769    4.02181685323686
H         6.26726528322218   -1.01589109269665    2.44602609702817
H         5.14465409134248   -1.51713827879537    3.68360140104280

