158
CSD_code = ZAVZII | q = 0 | S = 0 | Stoichiometry = C68H83N3O2PSc | MND = 6
Sc       14.96490927512429    7.11271388679379    7.34267901814017
P        14.60575873903704    4.60168083292754    7.90744238605699
O        16.17765647003688    7.22508689516653    9.25023687789464
O        13.53169405700474    7.01084180880527    5.49329845265501
N        16.50340323165708    8.35765042584983    6.13747830556827
N        16.57960870742323    6.12349446638509    6.18324604531485
N        13.92788651810219    8.82070649197148    7.80236303533363
C        17.00631693017380    7.25800643142789    5.61478508004387
C        17.86633021884791    7.23447257283471    4.39853003305353
C        17.60993824647453    6.24994185928288    3.44347339933444
H        16.83773608331612    5.51681907212938    3.63033045849521
C        18.33297928968265    6.19622391224133    2.26833348995865
H        18.11865517765455    5.42575013848612    1.54229145681759
C        19.33005777263232    7.12596908310326    2.02281629288139
H        19.89878272092346    7.08400134821118    1.10575302835341
C        19.59059297963887    8.10932558337564    2.96069999958025
H        20.36433432818582    8.84057806190975    2.77811133693164
C        18.86339088598906    8.16996293292418    4.13696809350453
H        19.08472930958970    8.94681617532954    4.84988604553806
C        17.33804473045468    4.96506721711963    6.15722142893175
C        18.73735637787572    4.99367784884666    6.09787133830762
H        19.24490109681177    5.94590081053401    6.02680471256318
C        19.48562930419564    3.83517212071304    6.14776402251126
H        20.56355883502116    3.89403746637446    6.09632620843314
C        18.85761085888756    2.60963673093193    6.27614805104427
H        19.43483141851896    1.69804610350153    6.31763862083126
C        17.47608788309147    2.56697256666676    6.36752049451210
H        16.98327020587449    1.61019118483360    6.48080605293267
C        16.70457995773294    3.71603595473100    6.31275242650743
C        15.21590089951775    3.61907704490731    6.42324820589786
H        14.93276333498085    2.57564199348612    6.58035707808482
H        14.74484263278681    3.98244845302243    5.50530474732942
C        16.87483358523579    9.65267385493228    5.74526980009949
C        17.72662911129493   10.37588947070967    6.60793477946029
C        18.09905011439353   11.66504312940661    6.26716813465899
H        18.76530128553948   12.21990315597352    6.90914658352497
C        17.63470704834396   12.25722729081214    5.10648506970248
H        17.94067378717196   13.26081619530916    4.84978515585193
C        16.77161171503235   11.56129070814030    4.28529928917999
H        16.40232159024134   12.03510992943686    3.38758602367328
C        16.37697265284615   10.26508870917957    4.58633810720516
C        15.39800335291711    9.55784535008165    3.67827819330627
H        15.21213974063346    8.55789260486230    4.08527900360980
C        15.95773673463070    9.41162298547894    2.26117129820029
H        16.08101292919034   10.38520121866633    1.79278931356442
H        15.28104102307638    8.82194428118272    1.64439872716961
H        16.92478095868482    8.91547360628553    2.27763817369329
C        14.06849255955435   10.31744277568962    3.65039289775614
H        13.59755516326549   10.28358393888326    4.62975512394027
H        13.39351143764146    9.87704816146117    2.91915477045578
H        14.22192371304258   11.35917520224477    3.37930994076603
C        18.23270960510236    9.72387536768194    7.87727023447486
H        17.46064366385002    9.00867074035135    8.18869913164239
C        19.52718535327184    8.94538911867743    7.61634605040821
H        19.34845826018547    8.10565289871374    6.94955191792434
H        19.92860953218855    8.55553216842481    8.55067721286027
H        20.27801585891162    9.59423575871821    7.16719885141947
C        18.46291238191632   10.71812450937471    9.01574911437641
H        19.33710427202516   11.33740908903279    8.82667382549961
H        18.63782702737630   10.18067745054463    9.94683791552161
H        17.59918910449764   11.36317355123485    9.14703560157484
C        13.36914272756123    3.44134087341719    8.60121595743508
C        13.63986906134778    2.95285038067787    9.89243814259232
C        12.70682181642280    2.17646524563102   10.56928954999629
H        12.94420369292134    1.81073514520684   11.55839620121932
C        11.50171334788026    1.85093853844172    9.97891490717212
H        10.77751995736602    1.24650990327141   10.50532371177482
C        11.23698948019018    2.30105266349462    8.70055891888977
H        10.30196653381438    2.04485705218725    8.22047623744388
C        12.15116459031922    3.08810457072339    8.00449981537119
C        11.69360019219896    3.49192523762733    6.65503737380808
C        12.19172679819150    2.89954002211282    5.50255616343808
H        12.99781637722825    2.18572857709980    5.57211044268297
C        11.63645975023809    3.17392615012691    4.25796707731625
C        10.54253157051656    4.02401061430258    4.17796241520453
H        10.08817148582823    4.21885039297306    3.21575047010492
C        10.00272465992360    4.60186000309566    5.31906607948395
C        10.59336884820562    4.33722839653652    6.54651930268078
H        10.17052618574498    4.76944904491719    7.44214745723653
C         8.77286891094158    5.45851558426645    5.24837941732942
H         8.55140564159911    5.74751211613137    4.22313760450333
H         8.88543454852100    6.35521805599350    5.85595535014318
H         7.91643130855139    4.90455600201671    5.63362111284531
C        12.20286308398800    2.52458691428784    3.03003616434060
H        13.27882702665745    2.68549849272699    2.97154914775434
H        11.74064676692740    2.92004876161995    2.12853031428859
H        12.03045490324619    1.44902245594550    3.06024179805746
C        14.92738490007106    3.19068723655209   10.57003605754807
C        14.95267931507876    3.68512314540631   11.87038044763624
H        14.02558922987218    3.97203292921772   12.34648843229472
C        16.14860355365130    3.81973289286657   12.56010897657565
C        17.33150872729484    3.44965609805704   11.93233430137643
H        18.26556603215754    3.53628810053295   12.47214196923111
C        17.33273014813663    2.95697496682327   10.63460374404191
C        16.12393965677103    2.82748531261575    9.96378334729606
H        16.11403176579181    2.41825290300826    8.96464339399778
C        18.60932326950239    2.56011102232114    9.95652804119267
H        18.71717296737786    3.08898648228145    9.01033444916625
H        18.60403964109681    1.49275479661888    9.73763373756109
H        19.47103369241402    2.77840260322167   10.58291632230670
C        16.16578737578824    4.32306949913735   13.97386463436504
H        15.28560848307542    4.92672729706682   14.18405560330778
H        17.05663467438165    4.91819999131727   14.16529771890550
H        16.17076840664036    3.48145208936413   14.66749065032558
C        13.45682079260042    9.40625994852402    8.93936773079626
C        12.65320763890169    8.65791130770522    9.84270158933159
C        12.16357062092237    9.25508445104550   10.99054288079216
H        11.55180706003058    8.67825997806502   11.67030428684967
C        12.41983359245177   10.58067946377155   11.28494296871574
H        12.02263618939722   11.03106354887560   12.18243567534310
C        13.17873565282853   11.32870357579457   10.40169740707880
H        13.35546539489297   12.36891354498692   10.62800624347945
C        13.70835383456649   10.77587978947902    9.25217592704490
C        14.53381739354575   11.62588622678085    8.30399973815985
C        15.21217562472647   12.82295456479905    8.97164163305214
H        14.49155621782757   13.60116457627332    9.21248565259218
H        15.94618151120730   13.24909231666516    8.28905812147725
H        15.71726014178266   12.52495619415695    9.88840578057136
C        13.65860066463932   12.12787369006058    7.14842258051220
H        13.11851635445921   11.30680060870900    6.68148159550458
H        14.26939363588436   12.61874225285131    6.39230303562430
H        12.92385366444676   12.83854939226276    7.52249953710557
C        12.25140338878021    7.22734952745512    9.54195438716417
H        12.73617007059661    6.91123013330585    8.59652977521485
C        12.69366005094538    6.25035234908014   10.63491341468395
H        13.77277878718365    6.10643258015580   10.60432846465193
H        12.22485279872664    5.28046317393308   10.47905761075916
H        12.41504534352477    6.61151821169257   11.62257258528598
C        10.73375202397761    7.14947422509580    9.34902184770528
H        10.21559486157256    7.44489975942296   10.25831214881373
H        10.43668521475409    6.13147137402018    9.10597486938863
H        10.41756138773041    7.81221352000838    8.54586158568264
C        16.01127612509335    7.99194377736081   10.45529721612681
H        14.94390014551711    8.12052308880282   10.64384955070668
H        16.46273556580909    8.98349861682786   10.31793837038034
C        16.73733743020326    7.21490778574818   11.54344449839470
H        16.11898991340759    6.38894324746170   11.89420352570840
H        17.01311568583159    7.84403742185077   12.38611814616596
C        17.93505862993367    6.67415672410782   10.77104910326037
H        18.70162694808356    7.44347367524308   10.66891049929697
H        18.37276791468434    5.79228550838741   11.23081809796095
C        17.31036899684784    6.34616338632344    9.41902813244876
H        18.00391123279892    6.49394754691913    8.58644783974372
H        16.94212325611789    5.31249205580864    9.39572108593590
C        12.15988047594366    7.39822681558268    5.61107765214565
H        12.12741393082402    8.29792755540108    6.22858610176210
H        11.60507895712293    6.58965452316663    6.10526160932571
C        11.64249639766827    7.60347256415030    4.17969537046808
H        11.61566814354551    8.65993190614329    3.92126758501768
H        10.63967636071663    7.19893453651728    4.07360621384004
C        12.65504664952417    6.84498797952266    3.30898718065996
H        12.17985832129935    6.10221490785693    2.67244005581471
H        13.22174740971285    7.52965902601616    2.68043356523452
C        13.56998674462191    6.17796639988815    4.33895884990833
H        13.17588605851196    5.18541585287392    4.59272152921737
H        14.60725191378562    6.09594734744275    4.01151487731864
H        14.33287043532257    9.54856828355835    7.20760813402210
H        15.33809329946364   11.00280992456198    7.88768671065460

