150
CSD_code = ZAVZEE | q = 0 | S = 0 | Stoichiometry = C70H73N5PSc | MND = 6
Sc       -0.00475827067339    8.33116630104526   18.93177680367504
P        -1.26622907327600    7.94968251263144   16.43768053258967
N         0.80361235175146   10.39380520687679   20.00411015020821
N        -1.22611475875324    9.94708598684018   19.26432262989188
N         0.29101665303710    8.40650738041877   16.86958186686829
N        -0.61247391200162    7.50055269345024   20.94018589226906
N         1.82408500464847    7.59167941840752   19.87964762322442
C        -2.13038651457660    7.67783687586326   18.02417487867881
H        -2.72279061066233    6.75984844517104   17.88667556374863
C        -3.05113691838014    8.77261159514321   18.38401084696164
C        -4.42825938294778    8.65362022430424   18.19556882874939
H        -4.83350643266550    7.70390887335273   17.87040475758794
C        -5.27547906311552    9.73318008174423   18.36340170366412
H        -6.33638385406618    9.62001389624935   18.19244009051745
C        -4.75177777662176   10.97044953656398   18.70634059024983
H        -5.39954648265542   11.83198111949574   18.78139937234472
C        -3.40269068129476   11.10873695197771   18.97494712737341
H        -3.01288000118438   12.07580196346468   19.25139733417056
C        -2.54858975765506   10.00534300661755   18.89569738511595
C        -0.46046570708403   10.76888008364635   19.97946848531085
C        -0.98972740420900   11.94317191020360   20.71896759930031
C        -2.07439825386105   11.77158533706484   21.57820437631688
H        -2.50499936883526   10.78715702430063   21.69870325240971
C        -2.59905397715939   12.84965979020941   22.26466527473832
H        -3.44373465770236   12.70813547926894   22.92277292056373
C        -2.04184250375897   14.10974679329561   22.11050582547811
H        -2.45494514331056   14.95314460890992   22.64392671564393
C        -0.95022253855731   14.28199077680866   21.27701923619675
H        -0.50587282517171   15.25961845414145   21.16147430192302
C        -0.42255077883655   13.20457040531686   20.58604475330133
H         0.42841382089007   13.34450927934070   19.93720315116911
C         1.81023867144460   11.10154327392866   20.67479595433707
C         2.84660512812184   11.65925220380961   19.89836005295356
C         3.86581511575533   12.36493555432642   20.51584075418180
H         4.64588197605108   12.80800089538107   19.91514087366872
C         3.89647600962162   12.52253929223587   21.88762725280015
H         4.68732499443658   13.08924132956932   22.35678052017499
C         2.91176046195352   11.93249804733383   22.65263186833127
H         2.95066412874118   12.03455951463610   23.72685830849091
C         1.87242989077881   11.21559456411677   22.07586919880675
C         0.88901371588492   10.53002262524415   22.99767954867895
H         0.13213346475903   10.02018403708115   22.39126276148048
C         0.19493359567487   11.52489799471882   23.93213178560300
H         0.88690758256334   11.88263686792786   24.69098646603008
H        -0.64212549571685   11.04590984074521   24.43634058918363
H        -0.17622229305754   12.38382909178303   23.38222039408436
C         1.61813684846929    9.47611072324717   23.83730101857467
H         2.17437489076376    8.79839872388936   23.19533608034794
H         0.90350726577816    8.90174742521756   24.42378577968058
H         2.31993758341701    9.94965459689017   24.51988528431172
C         2.85886307731840   11.51740558827701   18.39303441047217
H         2.05220110293690   10.82667890100298   18.10429998803111
C         2.61506609969506   12.86803110691288   17.71595797657776
H         1.67956058769211   13.31040515208478   18.04842185655595
H         2.56657277385048   12.73585006797589   16.63790554215904
H         3.41936354534933   13.56339343502517   17.94922591174115
C         4.19026231098093   10.94116680172490   17.90269377589246
H         4.98442094502508   11.68130822737012   17.97367179745823
H         4.09716892582828   10.64277932166210   16.86088503273838
H         4.47749007960443   10.07865809789844   18.49975469110578
C         0.97388958713169    9.27532315357715   16.00030159920078
C         0.45844971238655   10.53176484869034   15.61055510485391
C         1.21068413738607   11.34945996935074   14.78053661151291
H         0.80703449024699   12.30485818550979   14.47687371092936
C         2.45488578223882   10.97115917345518   14.31610595977865
H         3.02513634487498   11.62827324113905   13.67517715211760
C         2.94381452925220    9.72420273611637   14.65500561663886
H         3.89344199996322    9.40107385204064   14.25405503825696
C         2.22109114365427    8.87262342729862   15.47366767453046
C         2.70996030503557    7.45932641162558   15.69189473548086
H         2.16203103649654    7.05422095454250   16.55001940676730
C         4.21387972186948    7.35528314551728   15.95799268520997
H         4.78095638346294    7.49467548499788   15.04023776722380
H         4.45682552250047    6.36776159047589   16.34817377663689
H         4.54534799436822    8.10165209299434   16.67616402887714
C         2.34355108054468    6.62834000162196   14.45762766834680
H         1.27411100796430    6.68506831834649   14.27128256988551
H         2.61344698897032    5.58301154584844   14.59932946392288
H         2.86439124672198    7.00620357715765   13.57961103616534
C        -0.91567376370787   11.00331430904137   16.02056074556093
H        -1.33468903294679   10.28792039501398   16.73889424521131
C        -0.89197465713940   12.36305427178147   16.71611254757383
H        -0.31756254474196   12.29665641491800   17.63692380742597
H        -1.90787822577583   12.66333378283686   16.96601370563723
H        -0.45382081898994   13.13186840180094   16.08420085643341
C        -1.84082366295513   11.02484588467146   14.80330084991226
H        -1.49531425204640   11.74455915910526   14.06418553128605
H        -2.85233316170243   11.29112795649625   15.10324564440662
H        -1.86754168328945   10.04055990666648   14.34007968369268
C        -1.00228037865951    6.20871455724399   15.82321969835380
C        -0.21778500304587    5.20579169977202   16.40422538087828
C         0.12396453551870    4.08208318541076   15.64936657091037
H         0.71785784065627    3.30641310794188   16.11392655559106
C        -0.29505147966438    3.93137935378327   14.34225180475045
H        -0.01206837779767    3.05381780756109   13.77932820352773
C        -1.08991817768955    4.90502945442976   13.76953715710503
H        -1.44968617771648    4.79432307663027   12.75653650830022
C        -1.44097696644576    6.03362121734431   14.49899337687959
C        -2.30104778013687    7.04656125010320   13.86519240163004
C        -3.46479892700622    7.47399608003095   14.49534394463177
H        -3.73960909248092    7.04433434809246   15.44798788564096
C        -4.28734839025198    8.42263168686913   13.90653019668579
C        -3.93460488504233    8.93713275305974   12.66624835788930
H        -4.56661362336906    9.68101088559691   12.20082393367621
C        -2.78178508934779    8.52145854210354   12.01452767341580
C        -1.97245570260886    7.57116567904452   12.62139555760193
H        -1.06158619647205    7.25317410282644   12.13339838247195
C        -2.39209839593119    9.10486513566891   10.68946591870648
H        -1.57429884535573    9.81338048656165   10.82342416293505
H        -3.22788918994741    9.62916846348061   10.23252981396347
H        -2.05028140173459    8.32595674707220   10.01025676259725
C        -5.52011959344580    8.88912886987466   14.61897687795280
H        -6.16757300003622    8.04584499568792   14.85627232623575
H        -6.07871814889046    9.59743192496930   14.01199208085962
H        -5.24436819022763    9.37133327226022   15.55645204922938
C         0.23241012800624    5.12358869002051   17.81398067803902
C         1.57960783356488    4.88087891671826   18.08756205046580
H         2.30724797760470    4.97660464985514   17.29439475566138
C         1.99815387793199    4.43912985783943   19.33377735101118
C         1.04843803770352    4.22047395229828   20.32297891725967
H         1.35945143971053    3.82807488794820   21.28183897719426
C        -0.29915172128046    4.44775914453830   20.08209100318785
C        -0.69552020040988    4.91911902161619   18.83552615719308
H        -1.75171808070408    4.99258076407412   18.61960423231726
C        -1.33350791982913    4.07273918553403   21.10157704933443
H        -1.70033064737919    3.06662954792215   20.89289290992980
H        -2.18178210369257    4.75269380808025   21.06643610701170
H        -0.91751645776540    4.07728058133068   22.10633149733246
C         3.44037960440119    4.09957784459274   19.56704286800933
H         3.68352537141835    4.12783733752164   20.62651091271566
H         4.09373283512286    4.78904834286414   19.03685120953563
H         3.64460383336667    3.09266304244824   19.20011589716792
C        -1.83741852332488    7.54379632722490   21.46024318110469
H        -2.61568676247704    7.92074394809313   20.80291763156217
C        -2.14490538639242    7.14921147228558   22.74734142159233
H        -3.15199763465775    7.23117238979625   23.12260334552077
C        -1.11859334626220    6.62797938819813   23.53932698619089
H        -1.32062967769921    6.28350040057191   24.54270481653329
C         0.15009369939627    6.56081522666588   23.01690500009956
H         0.94930220936095    6.15230248857380   23.61356433759682
C         0.40321934355076    7.03227304779845   21.71647539695743
C         1.73320585692417    7.10377303479234   21.14621142244389
C         2.89511342062235    6.75836782249892   21.85967104412796
H         2.82290759099946    6.34126599945534   22.85127369900426
C         4.13336136214467    6.96200197678140   21.30065794922479
H         5.03081170832018    6.71035385029248   21.84580647230674
C         4.21104002341449    7.50704479759393   20.01704754863735
H         5.16484283479396    7.69653148775464   19.55157922510175
C         3.03218065671032    7.78904453595647   19.35675802310173
H         3.03997807714272    8.19765604028868   18.35246177494819

