77
CSD_code = ZAWGIN | q = 0 | S = 0 | Stoichiometry = C24H46P2PtSi4 | MND = 6
Pt        0.90378992245289    2.74472438784584    3.55666257812948
P         2.13204661446247    4.07541333443183    5.32042340358329
P        -1.08953351047428    1.94929507124274    4.88849561111900
Si       -0.35713658561544    4.63353831122262    2.72945790921263
Si        0.04048080368541    1.49544406683479    1.70913153240678
Si        2.25268466660909    0.79909317531328    4.04335541245889
Si        2.60747424244730    3.40676184378152    2.01396867538172
C         2.19046291959756    5.91569702886131    5.10015081417646
C         0.94588775171541    6.67798025011357    5.53289393146650
C         1.77679518574691    3.98618779338110    7.13708445495729
C         2.01607286354872    2.60067260236213    7.72036273257329
C         3.95191207916080    3.70641480075874    5.30079494326134
C         4.84660381699865    4.36193705172913    6.34812805353583
C        -2.66971608402956    2.15382173454365    3.93464428054103
C        -3.98907952008560    1.80854439958931    4.61819492950972
C        -1.18617604015814    0.13384877198338    5.25404165638485
C        -0.34390266280966   -0.35513546572148    6.42399527779548
C        -1.58451744884965    2.63287038771356    6.53792444440288
C        -1.94282406576983    4.11123583266375    6.48064003850064
C        -1.29951840095395    3.99297181302256    1.20598783476728
C        -1.13428412304563    2.67144290210198    0.79027017994344
C        -1.82659831799399    2.21348244588837   -0.32259814237859
C        -2.67696792426671    3.04814730868990   -1.02401221859872
C        -2.84151205078673    4.36095021804292   -0.61229631009377
C        -2.15483498781609    4.82183183903246    0.49617195685710
C         3.84420985856048    1.01112047108073    3.02275761573335
C         3.98800161569760    2.11255201373417    2.17854878130837
C         5.15391552033460    2.25920604259225    1.43923974003097
C         6.17473525717531    1.33101167435095    1.52988172945136
C         6.03356765796862    0.23752092775754    2.36914642149481
C         4.87356726431254    0.08610372966207    3.10679878062290
H         0.29696209782293    5.87538136592333    2.23292898642224
H        -1.46216738856820    5.27410427757415    3.52376446391057
H        -0.75888409833187    0.28653613628378    2.07676475997710
H         0.96459658024611    0.94087758123501    0.69368404133927
H         2.80734656919854    0.52562358375820    5.41434777045022
H         1.81102159127667   -0.58337881361982    3.71185304453933
H         3.23136617716536    4.73746406999373    2.28904024186522
H         2.29853966586011    3.51728228300254    0.56999616148583
H         2.37324294545996    6.09191630275840    4.03678496116346
H         3.05229838805760    6.28836410563822    5.66014784850250
H         1.08257524534854    7.73907478461022    5.33141956652204
H         0.75787376770228    6.56023159307190    6.59823621821986
H         0.07387935808577    6.34519106122085    4.97761609966584
H         0.73345810566802    4.27320237641990    7.28262400355728
H         2.40080257668451    4.73381099688890    7.63631291006533
H         1.46808824801587    1.85031602703112    7.15393693662524
H         3.06941176720268    2.33347820545375    7.68734092226179
H         1.68696311570393    2.56213891169443    8.75851503520159
H         4.04703277483524    2.62059471647571    5.37856778378234
H         4.30553523167080    3.98073285542686    4.30346009870553
H         5.87109235657127    4.03416509734400    6.17943906850817
H         4.57024003638072    4.07597040257456    7.35957204260081
H         4.83527815355779    5.44703166989760    6.27862308126601
H        -2.69984268615091    3.19513021482224    3.60491219679316
H        -2.55966168157318    1.54334107007243    3.03446146871442
H        -4.17977313396668    2.44055432102864    5.48153657054343
H        -4.79787375973647    1.96701857530105    3.90676242123719
H        -4.03054665804744    0.76874471019003    4.93372326043164
H        -0.87265486628101   -0.37969728199386    4.34126756860475
H        -2.23531267963393   -0.11180595604339    5.43910233673141
H         0.70780688133118   -0.13728692352212    6.26296821648598
H        -0.44818038296849   -1.43457645080467    6.51942382825542
H        -0.66354315009850    0.09721762332997    7.36066537515779
H        -0.74616115160493    2.48151202404373    7.22097751015673
H        -2.42687330334661    2.03980209866703    6.90694274137841
H        -1.13896106524015    4.67866301753388    6.01579436865787
H        -2.84371802819340    4.27813865919990    5.89537408123653
H        -2.11060415879984    4.50240351403153    7.48384586013195
H        -1.69298057909648    1.18877683495747   -0.64089776944121
H        -3.20917135877599    2.67960301420585   -1.89008082622686
H        -3.50302036621638    5.02073368785503   -1.15685989492493
H        -2.27951166144985    5.84529062265194    0.82107831429617
H         5.25844735806317    3.11380211250902    0.78506619797648
H         7.07785030053826    1.45678130696396    0.94877282438794
H         6.82691008273986   -0.49342380110678    2.44493067894389
H         4.75801646515276   -0.76591934927293    3.76200957528592

