72
CSD_code = ZAWMAO | q = 0 | S = 0 | Stoichiometry = C36H30AuClN3P | MND = 2
Au        1.99896237028997    8.55061838607823    9.47849676480912
Cl        0.89010832325393   10.52345681506171    9.64942394753825
P         3.06184669089269    6.58176876219308    9.31088863052000
N         2.76581608137621    4.04487634596325   10.35210716928822
N         2.28948477320000    3.41770507737620   11.34769656216276
N         1.79628326195521    4.29668702920486   12.23045985877411
C         2.62205284501221    5.37311238862216   10.55355855861718
C         1.98704248825774    5.56493320760624   11.78427981683887
C         1.61108213528961    6.82113722411299   12.40600636448535
C         2.50740295072139    7.90714514750396   12.40006815983315
C         1.99155471941631    9.16439712979186   12.70232400624995
H         2.62428203133462   10.03069856078596   12.58551480318981
C         0.73584923703999    9.31010181565035   13.25087207716507
H         0.38892463873747   10.29151687756862   13.53436582189805
C        -0.03099317365596    8.18775582882543   13.54930018851737
C         0.36058781800558    6.97654273143203   13.00039150897334
H        -0.29371824809048    6.12421196510590   13.09152858699868
C         4.00107653838450    7.71966891637059   12.39043906485090
H         4.47611818759819    8.40469347629909   11.68526487049164
H         4.25086697779553    6.70223625112941   12.08629813645742
C         4.60264578321239    7.98021751944556   13.81883099027102
H         5.38831253143531    7.24389918972809   13.99764018814061
H         5.05629813888847    8.97122933556949   13.84071788306633
C         3.53107110795674    7.90316271008639   14.86930414653808
C         2.99893345665983    9.05297911973036   15.44181243865196
H         3.53561367036024    9.98749770954918   15.36352784147799
C         1.72978755574505    9.04231355367492   15.99091501271745
H         1.29023417523980    9.96733684453732   16.33457466608818
C         0.96661958621233    7.88064548521247   15.97308656970326
C         1.61376292479354    6.68807439315799   15.66615901419650
H         1.08129304049790    5.75195242798775   15.75907162912711
C         2.88249310070129    6.69984314352691   15.12305272723432
H         3.33236600958613    5.77382056637838   14.79612179156955
C        -0.53288110668604    7.92638135592464   16.01710026561797
H        -0.87938547041032    8.68258948117596   16.72162623938407
H        -0.91792027306567    6.95694689015596   16.33625131062936
C        -1.11054479330888    8.26089192803305   14.58988841542819
H        -1.91401692689143    7.55930094771823   14.36358925089227
H        -1.52887303262408    9.26705805692733   14.60410809337051
C         1.22338353348745    3.81547016932173   13.43119549405511
C        -0.15513616203173    3.70864681814065   13.55528527686440
H        -0.79444967079996    3.98222157015336   12.72858588584177
C        -0.69653696012379    3.22560854025230   14.73330327928652
H        -1.76840666039505    3.14930618116651   14.83663685506230
C         0.13208940167248    2.83298910724538   15.77149347713234
H        -0.29507771160347    2.46131307725971   16.69049161833862
C         1.50767902165967    2.89875829807104   15.62488379776262
H         2.15466142001123    2.57242786315599   16.42467639293449
C         2.05824984835914    3.38320289104661   14.45175403532673
H         3.12902359392703    3.42044559134302   14.32006761335835
C         4.87730029408537    6.61101910673089    9.31582402992278
C         5.65114071810019    5.58174809941424    9.84136856835596
H         5.17575967427443    4.71749492509679   10.28495395945941
C         7.03067710956097    5.66945121026452    9.79027170156440
H         7.63348253786406    4.87131204199412   10.19830587789731
C         7.63925302088597    6.77494265059167    9.21833550071437
H         8.71664303948367    6.83790979873007    9.18308566751235
C         6.86912930554323    7.80100601707917    8.69408406831814
H         7.34374089694566    8.66328067232606    8.25011187836432
C         5.49001485376949    7.72193745484431    8.74474235184806
H         4.87344236699705    8.51984107405591    8.34950070023057
C         2.69621549318700    5.67777146372099    7.77890482203725
C         1.67387404615990    6.15328074250321    6.96513746899194
H         1.13537535410536    7.04778577545878    7.25525253651731
C         1.35556683775773    5.48607494593694    5.79595799523656
H         0.56132046250076    5.85646783516439    5.16497171699586
C         2.05726029640636    4.34695568346914    5.43826276289256
H         1.80943859337948    3.82663259888318    4.52490760743706
C         3.07789825495278    3.87402317378204    6.24864844023303
H         3.62298132921071    2.98528376425720    5.96692657978647
C         3.40369803221727    4.53513426483757    7.41762154958441
H         4.19436770330447    4.16635199851953    8.05278711840679

