39
CSD_code = ZAWVIC | q = 0 | S = 0 | Stoichiometry = C20H14FeO4 | MND = 7
Fe        2.13984994416248    0.72840205209877   11.21243294777579
O         4.68069688818048    1.25173194302349   12.56155737470473
C         3.71869946689848    1.00982424988121   11.99083871266086
O         0.56147645451164    3.09403549751621   11.97482785623664
C         1.14804221375114    2.18033720425469   11.62587286003154
O         1.41262627221063   -0.73176856768438   13.60431586025474
C         1.69447821242556   -0.17903114012417   12.64059914693085
O         2.77688101127251    1.34072544874092    9.30669186578108
C         2.95664681746983    0.06635967871141    9.26262794710546
C         1.83619706174026   -0.76080211503551    9.60193237102260
C         0.59796498256611   -0.09267976616482    9.81948351981487
C         4.23059950784718   -0.51870234141596    8.85541132343110
C         5.26960972903180    0.25486245226733    8.50307308594853
C        -0.60649531005076   -0.78602917520681   10.27001917038651
C        -0.55541786885167   -1.97436710540703   11.00317509408017
C        -1.71556231026893   -2.60025805814880   11.41407255075805
C        -2.95197034739129   -2.05377916209917   11.10893819727790
C        -3.01906547847256   -0.87142885245185   10.39019712150657
C        -1.86011118788500   -0.24397894487242    9.97734274122026
C         6.57869365533090   -0.17491121584173    8.06114265634024
C         7.54847530830169    0.79586438644481    7.79059238286104
C         8.81541075919522    0.43795789461657    7.37432339966685
C         9.14252383860375   -0.89911758916794    7.21594891869459
C         8.19213331965023   -1.87381295356266    7.47751206502100
C         6.92506871612926   -1.51921883091884    7.89554411519545
H         1.94144855872139   -1.83636125444556    9.65884154164644
H         0.40236976746225    0.75251205435167    9.15863246426269
H         4.27458206355965   -1.59797954952447    8.83371593371712
H         5.11937887049499    1.32679740600575    8.56457510613714
H         0.40078623972880   -2.40312458585823   11.26596550665928
H        -1.65719165199639   -3.51806186341065   11.98079491341404
H        -3.85716727573694   -2.54411873968401   11.43436182972457
H        -3.97916181864855   -0.43690034222068   10.15319748330188
H        -1.91771862489964    0.68053094213954    9.42034127814845
H         7.29671070594725    1.83951594535542    7.91339388565363
H         9.55170238616379    1.20188648094990    7.17175589907894
H        10.13254000591690   -1.18127990551574    6.88995689389199
H         8.44351661801702   -2.91722530349404    7.35404462086124
H         6.19715249891024   -2.29100627410254    8.09274935879505

