125
CSD_code = ZAWZOM | q = 0 | S = 0 | Stoichiometry = C68H53O2PW | MND = 9
W        -1.82795736873468    3.14015896015736    5.39241065457482
P        -0.22635824528199    1.56795610338305    6.28662486966393
O        -3.03346620279583    1.99676438026414    6.82844237785201
O        -0.48378046357877    3.07873658245453    3.77797304811061
C        -4.17124834898685    2.49698928059407    7.22577422317870
C        -4.48837718168297    3.83770994274968    6.86563467186962
C        -5.77506151826268    4.34228552514981    7.01426898846285
C        -6.73673075011689    3.52935118048598    7.59943203196889
C        -6.40241120039208    2.28635360457243    8.13031109062402
C        -5.10780439106045    1.77068677432387    8.00114452221557
C        -1.04890038555794    3.40019296478439    2.63312194950624
C        -0.29105214316671    4.00579056738051    1.61099202185292
C        -0.93274543769050    4.43901975149807    0.44842184076370
C        -2.29956149748394    4.23805914332751    0.30077108238092
C        -3.05763675097480    3.60900183568240    1.28421677092556
C        -2.44279677757458    3.21583030173871    2.47267000628506
C        -0.08361874584432   -0.13084203853240    5.64744596196004
C        -0.57459290433837   -1.23491743663011    6.33494749041781
C        -0.49867271711792   -2.49616089919320    5.76866596750186
C         0.05451602421824   -2.66595384354323    4.51071745154552
C         0.52955132879033   -1.56699972090935    3.81194409327356
C         0.45622931678296   -0.30686992150251    4.37452543194084
C         1.49798959945743    2.16528964833084    6.07653517727729
C        -0.30636638023929    1.31925157554310    8.09713927572211
C        -3.30838895444966    4.52547064376068    6.34114175428901
C        -3.16802102489689    5.18883979713480    5.11095925402618
C        -1.88562394165497    5.41845463779587    4.61305356312742
C        -0.71839386713649    5.22611983080900    5.43494466980487
C        -0.87795985114139    4.87764217186584    6.77791324868581
C        -2.13081811720890    4.43456149065917    7.21428059097274
C        -6.10670373816759    5.70252417132544    6.56174498080599
C        -7.22105729041486    5.92116818426206    5.75657818574561
C        -7.53073092034612    7.19482079560155    5.31616521738125
C        -6.73586974033171    8.26942737548529    5.67849786262026
C        -5.62940337044431    8.06321126124694    6.48588066833676
C        -5.31526095704998    6.78993048247574    6.92279878807873
C        -7.47422437593534    1.49173406275491    8.75709156079436
C        -8.33320625278021    2.06597829930131    9.68991866270175
C        -9.35321311078819    1.32495002356198   10.25797118688565
C        -9.53688707274268    0.00162492021982    9.89527212143842
C        -8.69603648588947   -0.57525617533790    8.95771679686361
C        -7.67395800388980    0.16248231647780    8.39240363790874
C        -4.69226075311224    0.55544572965109    8.71914261478540
C        -3.88841578241929   -0.41711432188450    8.12937523749559
C        -3.50263074847256   -1.53799900775985    8.84299671071936
C        -5.26478183949765    1.80341605668938    4.50996902570589
C        -4.69703853666695    0.56346653935557    4.87032610367531
C        -3.37999712705672    0.31884802947348    4.62392482625647
C        -2.52485497276388    1.31743111954056    4.07339801698336
C        -3.89493037583777   -1.70359196255483   10.15983496803362
C        -4.66789473445086   -0.72706283029412   10.76637560242477
C        -5.05898412090974    0.39080293459802   10.05625273086105
C         1.13759730921954    4.25270873049223    1.86977579269438
C         1.96591844414873    3.21074606929442    2.27582124485026
C         3.29600736958007    3.44196431175717    2.57283656234081
C         3.81935437291325    4.71971318366122    2.46672894760352
C         3.00341111164883    5.76367439772336    2.06309117028861
C         1.67196623998157    5.53451325784916    1.77102972348187
C        -0.17721354244109    5.07690276337044   -0.64297604042441
C         0.99491391438654    4.50654333662037   -1.13205848384827
C         1.69267824302434    5.11012676128273   -2.16076397575715
C         1.23257918176197    6.29220466985296   -2.71701620999067
C         0.06347796674097    6.86308783618761   -2.24375254897559
C        -0.63828827024109    6.25806571752207   -1.21757392758806
C        -4.47629179077697    3.32640807559101    0.99709298349018
C        -5.33792914913847    4.34668267224258    0.60860180124326
C        -6.66129033493455    4.07369857556520    0.31254207890838
C        -7.13637781885143    2.77582917633778    0.38969414880282
C        -6.28072345258077    1.75125391004297    0.76032845860410
C        -4.95993625151584    2.02219520499695    1.06199810712245
C        -3.12967003277065    2.54866679379349    3.60460843697162
C        -4.52157438444445    2.73879703402766    3.85609919839244
H        -7.75303120522574    3.88435578259492    7.68401211289444
H        -2.77834444270498    4.52612768203450   -0.62372088772947
H        -1.02019160940714   -1.10793477889985    7.30893487048349
H        -0.87637283524309   -3.35162374448887    6.31002097723442
H         0.11027393305237   -3.65124236510035    4.07218228042078
H         0.95250750771858   -1.69616972163657    2.82624643966406
H         0.81250208666479    0.55846978654660    3.83337583281832
H         2.21367375097407    1.37890670842831    6.31236878413014
H         1.65930305802863    3.01398750221185    6.73866907581787
H         1.63411143836314    2.49891542576946    5.04998718553409
H        -0.12447445451455    2.27555352865502    8.58525348902223
H         0.44217371931266    0.59725183430430    8.42147825416086
H        -1.30513406132151    0.97943488330999    8.36361987505832
H        -4.03916320854917    5.44894172462010    4.52207213251210
H        -1.76034493413107    5.89284304972379    3.64487425309414
H         0.24976263573164    5.53193852570123    5.05095327896193
H        -0.03877352797847    4.92096052709672    7.46555622115723
H        -2.29139580012043    4.18044033974258    8.26063337732330
H        -7.83490658075232    5.08138862008008    5.46436601733233
H        -8.39507005664969    7.35024851655570    4.68659792476389
H        -6.97878977157493    9.26441829036685    5.33527417982160
H        -5.01014802022053    8.89954955348647    6.77766972149875
H        -4.45849478554026    6.63469858768250    7.56326994796828
H        -8.18490750696438    3.09558785930572    9.98432777304360
H       -10.00692196928211    1.78133741877510   10.98769723755439
H       -10.33348545839019   -0.57715784671111   10.33958826620091
H        -8.83958303197991   -1.60554591430578    8.66527962865488
H        -7.02421603537671   -0.28654374622508    7.65586137461871
H        -3.57172039570569   -0.28741493146600    7.10795126799393
H        -2.89733128139190   -2.29565921622929    8.36404904570413
H        -3.59622139677128   -2.58285705366952   10.71234800770729
H        -4.96639716883812   -0.83743388307931   11.79917930723269
H        -5.64905674704047    1.15279752893392   10.54385417630962
H         1.55815252274710    2.21242112402552    2.33984307256931
H         3.92940031094519    2.62280419230640    2.88432209788754
H         4.85929794898612    4.90122643075025    2.69656972875914
H         3.40670421267267    6.76287973008549    1.97929869751055
H         1.03632950868439    6.35397149330845    1.46672708802983
H         1.35135326266716    3.57962195258741   -0.70781893859353
H         2.60014578148132    4.65601844140848   -2.53187728501077
H         1.78152747479005    6.76524984594151   -3.51809698887251
H        -0.30178331538552    7.78425903617716   -2.67510657117315
H        -1.54529877499645    6.71112074350228   -0.84247918408627
H        -4.96859599873863    5.36145628657793    0.55395085713641
H        -7.32338670342666    4.87622074901268    0.02008632976530
H        -8.16971849832200    2.56275641573510    0.15802209479972
H        -6.64502937217097    0.73571637425954    0.81410703784828
H        -4.29185310581101    1.22231383165733    1.34540532475698
H        -5.00186663638579    3.63459004171563    3.48621532969581
H        -6.31089968701973    1.98335657952366    4.70772088572826
H        -5.33143101440011   -0.19875670669713    5.29758153227401
H        -2.95699388837143   -0.66031539955687    4.81293780990722
H        -1.66909578972346    0.93362504702412    3.50949259659097

