129
CSD_code = ZAWZUS | q = 0 | S = 0 | Stoichiometry = C68H57O2PW | MND = 11
W         0.63733674326135    4.82743419372091    5.34918997882020
P         2.29754967307308    3.07877973414046    5.70731967836772
O        -0.64889871124321    3.05871131268075    5.58809807450637
O         2.30717009908286    5.67992178863894    4.45449737368364
C         3.29986481206688    3.56587434186539    7.14852424561660
C         3.23733345684103    2.93578722854936    8.38589609418898
C         3.95974283542494    3.43568709155879    9.45682244321233
C         4.74596439451473    4.56465432907610    9.30344120553636
C         4.80522232430577    5.20349594369048    8.07371637910038
C         4.08006098998273    4.71295038750286    7.00516758111230
C         3.62130197682132    2.82949968007015    4.45929122736894
C         1.87733239295381    1.32747796576833    6.02930543600855
C        -0.86739904606415    2.63522505386604    6.80519612572021
C        -1.33112577973054    1.32906598201208    7.07861532722643
C        -1.35680651019857    0.88483546130033    8.40281599624778
C        -0.91472600758744    1.71037242045892    9.43477738968244
C        -0.52038674160573    3.02213494697692    9.19809768625784
C        -0.53865561216978    3.49449468226853    7.88882860528086
C         1.98139386407773    6.49057234874578    3.45916340367494
C         0.68874221680325    6.38810661447549    2.86272922857590
C         0.30833567634824    7.37420656530340    1.95440596220858
C         1.20354012896014    8.38435581907281    1.60443719215365
C         2.47877375170246    8.46083635156238    2.14181505387406
C         2.87237308689681    7.50821146487821    3.08695098759323
C        -1.66597672645318    0.45946003386904    5.93938251211879
C        -2.51010907911817    0.92036290686428    4.93291852803546
C        -2.79765493717802    0.12873060492186    3.83683582973475
C        -2.24567540479331   -1.13625192813969    3.72843902343120
C        -1.40107796424763   -1.60264047837704    4.72212761326380
C        -1.10905938180940   -0.81118361603286    5.81655703127841
C        -1.86490930608343   -0.45679191213085    8.73866128374242
C        -3.08801956560615   -0.89840992336077    8.24086489294157
C        -3.56866714004907   -2.15120261164352    8.57001410411757
C        -2.83658205395722   -2.98360552007658    9.40057035990263
C        -1.62258344183772   -2.55162532260787    9.90645544691191
C        -1.14222327958692   -1.29650431364186    9.58128585723457
C        -0.09324866433314    3.88954667899887   10.30682378662731
C        -0.57675762042315    5.18905314188951   10.43325214614441
C        -0.15182191400306    5.99884711235577   11.46954639432051
C         0.76500664209750    5.52567860780396   12.39354428799526
C         1.24601684398356    4.23218047575596   12.28135176322664
C         0.81755802139061    3.41923180272999   11.24878930916656
C        -0.21858523446050    4.83240606899988    7.38945833177613
C         0.95912641577342    5.58460675730190    7.65470438838505
C         1.26333071543259    6.65242035960094    6.83215828058587
C         0.34306015170306    7.08912370847143    5.81644011544977
C        -0.97928517727832    6.59098959985525    5.82995555952191
C        -1.25412759061926    5.44965832794380    6.55859050519507
C        -0.06587236520196    5.18433073623533    3.28963632656852
C         0.69553154467958    3.95660130439360    3.27408445061361
C        -0.05147831093135    2.72415756563947    2.80444929320843
C        -0.78276945824618    3.08229117738664    1.50590630257696
C        -1.82283770720722    4.18087408016527    1.74930005940938
C        -1.54422747248892    4.97420841320423    3.04192197862358
C        -1.02114214713826    7.47379249182930    1.30813483475007
C        -2.07313865463081    8.10928849776795    1.95986814372479
C        -3.29062355781780    8.28420510700600    1.32751997194028
C        -3.46819557694009    7.83774919348940    0.02861299963508
C        -2.42080989688248    7.22370321738364   -0.63598390585300
C        -1.20350490485251    7.04498409877498   -0.00116591360128
C         3.39224249576331    9.53230198657359    1.71601350049035
C         2.94542148834853   10.84854512073272    1.63239964095120
C         3.79838283709380   11.85857107004012    1.22803995815287
C         5.11078093385817   11.56924901190667    0.89520806058437
C         5.56293425023410   10.26203035524126    0.96579042773465
C         4.71244714705743    9.25180603288407    1.37232858232045
C         4.14761487379628    7.61094492323618    3.82111180915509
C         5.04063180817912    6.54490044352708    3.84585889007397
C         6.20536249169918    6.61660190123870    4.58756517321980
C         6.49619538426356    7.75933452402222    5.31351004547639
C         5.61844664831565    8.83051717964135    5.28778920086550
C         4.45164007315894    8.75670302688796    4.55027385840373
H         1.67382285130722    4.03540342330469    2.78241478672980
H         2.61854097624275    2.06139758239356    8.52037373518806
H         3.90517182861047    2.94408842317571   10.41685725073626
H         5.30583925492151    4.95041796808115   10.14250148434311
H         5.41095327243639    6.08935015457920    7.94863929476216
H         4.09651292696962    5.22580874814300    6.05313020310403
H         4.45810137070183    2.29480776792217    4.90792818221301
H         3.95442717584436    3.79661974020450    4.09410985369621
H         3.21615254363556    2.25102874142849    3.63049089543578
H         2.79304386933814    0.74899424648055    6.14882237523645
H         1.30750486503626    0.95775665563898    5.17767868137146
H         1.25622080590426    1.23015810070631    6.91493326583381
H        -0.94693034744137    1.34458030248425   10.45030321517840
H         0.89194721421880    9.11692044622151    0.87350003333750
H        -2.94906930720641    1.90333557935934    5.02072300550130
H        -3.45563071160263    0.49925948255906    3.06375055860108
H        -2.47122913225399   -1.75607244595482    2.87286648324699
H        -0.96405011034757   -2.58778931138319    4.64165738436923
H        -0.43930436797434   -1.17643954717464    6.58178628504167
H        -3.66500167327496   -0.24871538644700    7.59967107409699
H        -4.51980456694393   -2.48074460816091    8.17760795082271
H        -3.21165134667019   -3.96431787679356    9.65407966660352
H        -1.04705886368372   -3.19606282553282   10.55569956317863
H        -0.18799176331677   -0.96746887576032    9.96871920945330
H        -1.30236304504789    5.55869061164706    9.72304458324701
H        -0.53877347711389    7.00384330591598   11.55893249456255
H         1.09923094562699    6.16112441756586   13.20043398677016
H         1.95745985191005    3.85655910108124   13.00289458538649
H         1.19783483168928    2.41189822761994   11.15896879282136
H         1.62307672434181    5.29158092586290    8.46026230476042
H         2.18056814781592    7.21360501250429    6.98143266349511
H         0.56948537175440    7.99800271859756    5.26787656757884
H        -1.75914787448535    7.09167135919054    5.26696840635680
H        -2.26315978437307    5.04572018498333    6.60537212141875
H        -0.77210310911075    2.38376729181409    3.54759277493067
H         0.64895844172936    1.90570700879392    2.61923608132394
H        -1.26252830974437    2.19428137130439    1.09150312987578
H        -0.04309777040291    3.43018413462489    0.78112595283022
H        -2.81858113736106    3.74149431433447    1.83486562913700
H        -1.83939103877527    4.86401654444980    0.90036651334491
H        -2.09353180390094    5.91416385998103    3.00697656593194
H        -1.93287834977762    4.38196224403640    3.87710860262133
H        -1.92609725649370    8.47799431807455    2.96643760986169
H        -4.10131123679229    8.77671997211242    1.84556114719303
H        -4.41781208123173    7.97748302869089   -0.46661107951624
H        -2.55153181061304    6.88392409473377   -1.65333288169424
H        -0.38091040542025    6.57406500209253   -0.52031063477510
H         1.92490043479738   11.08048672449647    1.90300495031268
H         3.43891510669595   12.87646122702709    1.17410248578131
H         5.77750335557864   12.35862876744851    0.58000809710078
H         6.58415794308432   10.02878721915354    0.70044261967341
H         5.06668252211862    8.23257971219019    1.41349586735587
H         4.82006145478521    5.66262025462580    3.26161934130872
H         6.88949341164587    5.77954215427138    4.59974368290480
H         7.40614660600116    7.81669938567803    5.89358523801996
H         5.84310267872896    9.72658237209182    5.84903860750125
H         3.76431764976651    9.59087290983596    4.53800503329297

