25
CSD_code = ZAXBIJ | q = 0 | S = 0 | Stoichiometry = C6H10Cl3N3O2Zn | MND = 4
Zn        0.32605736842985    9.03327092322689    8.22671809710605
Cl        1.87994965845483   10.39005409419299    9.00832945644256
Cl        1.39742798956958    6.80268943934332    7.54470015507472
Cl       -1.67408261839093    8.42724480266681    8.86379997561922
C         1.18362811331021    9.51945382762193    5.37177537326391
C         1.20688240606704    9.49590381784388    3.84307338078170
C         1.15328959091333    8.01251078790255    3.40821963751098
C         2.42066047329152    7.29055668609356    3.71619376785868
C         3.90861336830168    6.27531245583238    4.89012132692556
C         3.44728751972823    6.96358948230558    2.87089133691807
N         2.73680186150598    6.85089005145854    4.96975603308525
N         4.38077117871585    6.31966892482788    3.63178876200444
N         2.45260893074266   10.11436872015036    3.40713636324233
O         0.15779147863753    9.39021360046930    5.99652539852998
O         2.35357207858626    9.64108733712032    5.94046118187626
H         0.29624945794591    9.99227093827071    3.47809801205998
H         2.39042987910136   11.12560574753623    3.47033820974292
H         2.65787351905543    9.87704504383287    2.44369133982281
H         3.04097536386257    9.77394755353622    5.25255216383220
H         0.32103636175620    7.53700416714255    3.92848929766969
H         0.97116789430826    7.96621674831171    2.33337808695104
H         2.01296545599554    6.82951266151343    6.29047396578831
H         4.42067549649725    5.82842791385272    5.71697476225712
H         5.25536449850388    5.94371143014737    3.30208063937170
H         3.57420267507929    7.12114284477578    1.82023327627879

