88
CSD_code = ZAXCEG | q = 0 | S = 0 | Stoichiometry = C30H45B2FeN5O5 | MND = 6
Fe        2.87928209090265    3.01293209286860   -0.66819962485058
N         1.06278866903418    3.06016126768668   -0.16634290606508
N         2.14047848081689    3.23606038570802   -2.38589485098436
N         4.69808488981383    3.05359647654583   -1.16277143665320
N         3.62107024661954    2.91314542139544    1.05976011803374
O         0.63446570877726    3.09600783271069    1.09327389015323
O         2.86405075755953    3.47669784033606   -3.47758121549950
O         5.13271867558536    3.27541611694357   -2.40105776410849
O         2.90580302423758    3.00491943528049    2.17919904570943
B         1.47001618889084    2.52525532244327    2.22084539333460
B         4.27444285810105    2.93947354872599   -3.60346289312387
C         0.21790508536191    3.23042527688303   -1.14043544463510
C         0.84529034417341    3.33918577131342   -2.43061950283968
C         5.54620606839047    3.01945990122749   -0.17731096144487
C         4.91956023357759    2.94453549501195    1.11564168897066
C        -1.25991569910094    3.35034028469993   -0.94672336601229
C         0.07472826052399    3.59338455694911   -3.68652006532226
C         7.02895696017519    3.09672631942900   -0.35435613621673
C         5.69639736499906    2.95094191145847    2.39320298479812
N         2.92943176853787    5.05500518743956   -0.49879576163475
C         2.42678584196373    5.66533583424404    0.57227166476855
C         2.43826440313545    7.04061490224260    0.72722431321373
C         2.99464028099142    7.82450639883845   -0.27082984091733
C         3.51785062307050    7.18912877343024   -1.38557123134331
C         3.46448072497293    5.80798470337290   -1.45745654520162
C         2.83627521076568    1.27287290928052   -0.81194335077960
O         2.80759759802370    0.13657632566264   -0.90469146629078
C         4.27943085755097    1.33687620438666   -3.92423846237271
C         5.72987602711488    0.85917596465379   -4.05601632226592
C         6.57310353242150    1.62171169251327   -5.08063343312207
C         6.40364529408627    3.14204989596607   -5.03256701610739
C         4.95614268323333    3.63606084263936   -4.90270010579612
C         4.08272004479746    3.35926576744787   -6.13401722271113
C         3.78429856865241    1.88251817290919   -6.40383561020930
C         3.40978113580601    1.07392454762275   -5.15921474344746
C         1.38310173069082    0.89398824391334    2.27505414756773
C         2.23281416842199    0.38893664613397    3.44702307876628
C         1.89356282445918    1.00049789832048    4.80863096074625
C         1.67161039153570    2.51466485704225    4.78525206131783
C         0.81851562122308    3.03295989280427    3.61940103208660
C        -0.65257594340994    2.59796262541490    3.67230995807195
C        -0.89874401008047    1.10083143034655    3.47113199461060
C        -0.09012983463683    0.47477794092840    2.33246696694393
H        -1.49656132151870    3.15429119840257    0.09595683913317
H        -1.60444758001255    4.35070323960373   -1.20605868951226
H        -1.78558840362120    2.63616043078118   -1.57758749462914
H         0.75869137001221    3.57096264195596   -4.53114384119611
H        -0.69261260893301    2.83357412731098   -3.82237501500835
H        -0.41340785114544    4.56650388068373   -3.65094357531302
H         7.25999360370512    3.06657940556648   -1.41610618878860
H         7.42167463714796    4.02103677555271    0.06762240952836
H         7.51579412529298    2.26162833765634    0.14566479740879
H         5.00888276056274    2.82129786528232    3.22519539091216
H         6.42678848322766    2.14407334612799    2.39851415131023
H         6.22967771326969    3.89263402744857    2.51712897381804
H         2.00029406523302    5.03447283723549    1.33784582725981
H         2.01722294954805    7.48270253900144    1.61601043127635
H         3.01976123776679    8.90020615652662   -0.18236935018356
H         3.96258095704507    7.75025896120084   -2.19179764758408
H         3.86411633428397    5.29158447331661   -2.31746126241574
H         3.83358125637569    0.76976250877498   -3.09934446123366
H         5.75004063752331   -0.20553024851758   -4.31075118002773
H         6.19501724725398    0.96820207049886   -3.07250757970633
H         6.34744074385102    1.25951263221945   -6.08140421212639
H         7.62772271877717    1.38712089896965   -4.90098809813480
H         6.86626852720031    3.57130890065563   -5.92723208510757
H         6.94581367548889    3.52424585719991   -4.16459638923069
H         5.01108763136332    4.72754292175342   -4.80303301404000
H         4.54893380456406    3.78786486835847   -7.02713517521654
H         3.13668226933718    3.88122316563257   -5.97264404526092
H         4.63776425036522    1.42097667545003   -6.89608402333130
H         2.95302634492017    1.82381772153288   -7.11457904698879
H         2.37955793635328    1.31617892309913   -4.88445162259564
H         3.43741304518579    0.00943507978351   -5.41413480574773
H         1.80344125479607    0.44762174349400    1.36682879749719
H         3.27514633113947    0.62088162216475    3.21188087895019
H         2.15060030500793   -0.70018284546578    3.52416000827613
H         2.71727023491255    0.78407979576332    5.49731146622986
H         1.01540594613077    0.50848204403347    5.22151283329162
H         2.64360217961170    3.00724122093550    4.70735214070159
H         1.22407055839180    2.81459312296252    5.73838381799301
H         0.81904817127087    4.12739729749577    3.70001587907176
H        -1.17098053328025    3.14414794204427    2.88090302339042
H        -1.09685354355522    2.89755268806915    4.62706860799563
H        -1.96297628552553    0.95250315846314    3.25913171496971
H        -0.69657896209155    0.56858155689114    4.39822796995855
H        -0.16485215873233   -0.61486876577720    2.40973228136925
H        -0.54476381026793    0.76634428468940    1.38177854389772

