88
CSD_code = ZAXCOQ | q = 0 | S = 0 | Stoichiometry = C38H37B2FeN5O5 | MND = 6
Fe       -0.00000206500617    2.41462559769279    4.05274054813641
N         1.88309459175792    2.35420421969021    4.13950503461921
N         0.36239910694347    2.36071272837152    2.20267815850654
O         2.55659742199071    2.22102813690897    5.28048502163825
O        -0.58181916644368    2.23498585478000    1.27290677072980
B         1.94938109308270    2.83789048741078    6.53859477230956
C         2.50234391283725    2.26184480022198    3.00498878220234
C         1.61201367099253    2.27127028116722    1.87048395077163
C         3.98349965873843    2.11144762217448    2.86928462868558
C         2.09532489972955    2.13799827062450    0.46244912610036
C        -0.00020849955036    4.17767659660973    4.05284304470689
O         0.00000514124877    5.31361945424521    4.05288804058322
N        -0.00001161485976    0.38092081130282    4.05276775811477
C         0.69814080137533   -0.30397774356887    4.95720017256163
C         0.72614797596298   -1.68702568884687    4.99400312975004
C        -0.00001004255011   -2.39935616384086    4.05276251668315
C         2.67316064680576    5.14898424183879    5.52060241601666
C         1.81754457928602    4.43904287551239    6.35857380330957
C         0.85082337414071    5.16233972961696    7.05174582403805
C         0.72203695001899    6.52983596963087    6.89464934872078
C         1.57100438095253    7.21208314289803    6.04060447811273
C         2.55382565850005    6.51697179902014    5.35839194558232
C         2.46601600068926    1.79952960060050    8.90141277458316
C         3.32412381844899    1.45330319335053    9.93053059819275
C         4.67879573047430    1.71328849954284    9.82131137864743
C         5.16272538241769    2.32299954741285    8.67641151775322
C         4.29559275549968    2.66845081004543    7.65585811397815
C         2.92925997517603    2.41295306895105    7.74143299645821
H         4.42717492389023    2.05668844817572    3.86033032773777
H         4.23184292376792    1.20813556858683    2.31473447071373
H         4.40200691291185    2.96341815968718    2.33518505689719
H         1.26570211305784    2.31960013286405   -0.21640245478168
H         2.89114447755118    2.85278460323193    0.26454914233448
H         2.48338984914608    1.13621932794950    0.28001777528632
H         1.25859739402277    0.27030865303972    5.68035064964084
H         1.30908860583817   -2.18928974420916    5.74932505581749
H        -0.00001037841260   -3.47888189144569    4.05276238066670
H         3.44277058792446    4.61691602267372    4.97863318797456
H         0.18651689897049    4.63868867638232    7.72510969292135
H        -0.04330382024176    7.06693686626355    7.43802226723394
H         1.46937777332643    8.28000011012231    5.91025457569650
H         3.22614124360603    7.04349051435322    4.69492077268598
H         1.41052223653436    1.58961971408283    8.99260367514345
H         2.93625905912826    0.97889116544529   10.82206458916623
H         5.35233038674142    1.44499885457097   10.62323561382367
H         6.21966822050745    2.53223032511077    8.58326387652578
H         4.68042471657895    3.14989536583563    6.76904084119509
N        -1.88309538128803    2.35417441318069    3.96597617254302
N        -0.36240880259979    2.36074786263133    5.90280526965167
B        -1.94938392407044    2.83788587102494    1.56689070953533
O         0.58180479779848    2.23501620469942    6.83258211554083
C        -0.69816159874551   -0.30397698240216    3.14833086333906
C        -0.72616671521938   -1.68702504845738    3.11152245484200
O        -2.55660069518129    2.22100880433680    2.82499298422993
C        -2.50234654217647    2.26183794597879    5.10049715504397
C        -1.61201971691763    2.27128819827560    6.23500196862192
C        -1.81751484634544    4.43903567855963    1.74694738187254
C        -2.92926104298166    2.41293888561217    0.36405511662247
H        -1.25862034777332    0.27030919065342    2.42518078383098
H        -1.30910354220580   -2.18928819571701    2.35619814658750
C        -3.98350515683977    2.11146502067739    5.23621367562576
C        -2.09532234746770    2.13801376277500    7.64303841266522
C        -2.67318149440571    5.14898520584253    2.58485745947183
C        -0.85074379250192    5.16232777277286    1.05383683061345
C        -2.46600466555820    1.79954144980382   -0.79593388906620
C        -4.29559631171507    2.66840632470318    0.44963822454079
H        -4.42718477153290    2.05669749408147    4.24517098604845
H        -4.23185878553084    1.20816638013676    5.79078064603270
H        -4.40200487623761    2.96344730785587    5.77030144558091
H        -1.26569528361087    2.31961539445983    8.32188568000793
H        -2.89113965623050    2.85280333493177    7.84093840942623
H        -2.48338551382452    1.13623339791102    7.82547111526669
C        -2.55384688165246    6.51697209843106    2.74707383010704
H        -3.44282618697094    4.61692186582871    3.12677863374273
C        -0.72196525553411    6.52982741463702    1.21093017645209
H        -0.18641250343402    4.63867718355640    0.38049474099415
C        -3.32410439850010    1.45331504234071   -1.82505540032428
H        -1.41050418722634    1.58966173968785   -0.88713293907221
C        -5.16272106471460    2.32295446132894   -0.57091845308503
H        -4.68043559189131    3.14982734605664    1.33646469587834
C        -1.57097915215153    7.21207842022618    2.06492172273240
H        -3.22620170339505    7.04349531848610    3.41050649210092
H         0.04340088499930    7.06692574484096    0.66759416013467
C        -4.67878019296434    1.71327170862031   -1.71582909510317
H        -2.93623281092370    0.97891395120249   -2.71659178329787
H        -6.21967182442301    2.53214806450257   -0.47775761380371
H        -1.46935379847977    8.27999199718270    2.19528145365377
H        -5.35231458308812    1.44496335265727   -2.51774888775489

