38
CSD_code = ZAXFAH | q = 1 | S = 0 | Stoichiometry = C16H17ClNPdS2(1+) | MND = 4
Pd        6.05918312089816    5.73833749979707    1.81418039419049
S         4.27407457296932    5.66335098690413    3.30849980848526
S         7.64550200464238    5.91795273768095    0.18226420264889
N         6.61100099066562    3.86031971009747    2.41422696301445
Cl        5.46576713787976    7.79705446068973    1.21051134326164
C         4.39823187413952    6.30202809075439    5.97318128996319
H         3.39561616519813    5.90561056836412    6.01790327889917
C         5.00434545994135    6.81362761903949    7.10824250411768
H         4.47190641204876    6.80781715895922    8.04608026556706
C         6.28266039429656    7.34284000927370    7.03518076523429
H         6.74907616821647    7.74799094940393    7.91914110286444
C         6.96035563206072    7.36576896386687    5.82592667203594
H         7.95051932204888    7.79045834153489    5.76880231003720
C         6.36594014749183    6.85167342643015    4.68569995387284
H         6.88620361094061    6.89703905270134    3.71637400843240
C         5.08663795887040    6.31478762086869    4.76938561278443
C         4.47659737947823    3.86496145547747    3.62628558192588
H         3.99746795339921    3.62102610839342    4.57375866978211
H         3.94791512220982    3.36864796360769    2.80972876643266
C         5.94788571175220    3.47513036174545    3.64761546115293
H         6.44487363991418    4.00011793321370    4.47652811781133
H         6.03894121799745    2.39431121976414    3.82390999964551
C         7.42080878224182    3.02633124557919    1.87941182351206
H         7.53543428093093    2.05010798119388    2.35963021514295
C         8.24478224879463    3.16950159258084    0.69783950216686
C         8.94465915974785    2.01291149753159    0.31047543459997
H         8.82861782165138    1.11428595935394    0.89787926390347
C         9.76385593539890    1.98919699469244   -0.79859808672933
H        10.27897931501723    1.08053202471022   -1.06655499941141
C         9.91772399304307    3.13365716289690   -1.56559919818410
H        10.55139732698101    3.12941093160746   -2.43796746052084
C         9.24469595652827    4.28822454339953   -1.20408907693323
H         9.34925589059791    5.18391050818912   -1.79726139954972
C         8.42349345129088    4.32159488600961   -0.08647204825650
C         8.90013246718933    6.68325306474286    1.26784230140976
H         9.07074358683967    6.06827112623142    2.15207730362889
H         8.50427020038978    7.66260641767443    1.53781717989690
H         9.82354758629199    6.80165182503503    0.70714217315989

