43
CSD_code = ZAXKEQ | q = 0 | S = 0 | Stoichiometry = C16H14N4NiO8 | MND = 4
Ni       -0.00049724521394   -0.00140077406696   -0.00006531816476
O         2.28518984720017   -3.09803717627279   -3.01238381584398
O         4.36812469940754   -3.43731821695257   -2.37170064127942
O         3.22363016726395   -2.04448587523285   -1.09309572181462
O         1.93838232085684   -0.58896276247796    0.16060666541883
N        -0.22303167633504   -1.10281098928315   -1.57755112276802
N        -0.05650038244499   -2.42974923356175   -3.39973909924790
C         3.33238824195151   -2.89772540267828   -2.18539796691843
C         1.10813901303118   -2.47425585254420   -2.75821251968601
C         2.07459558986061   -1.39256540995935   -0.78121366947681
C        -0.83462187846238   -1.59928856608211   -2.66660838475217
C         1.02323685237106   -1.67141939546778   -1.63072131453424
C        -2.21126178840810   -1.23450914371770   -3.06348697618660
H        -2.51798163916982   -1.87563535112062   -3.88873352861550
H        -2.87265588675168   -1.38613687737101   -2.20883997189188
C        -2.27900297748414    0.24455583564852   -3.47777705698742
H        -3.32370362843164    0.50974352248269   -3.64415115683251
H        -1.90115959017341    0.85030769302851   -2.65069831844754
C        -1.47388720430786    0.51810342114444   -4.74022841321329
H        -1.54832758782231    1.56667153009744   -5.01822396931110
H        -1.84466871707999   -0.08377997915667   -5.56643030273470
H        -0.42467810526296    0.27523590435142   -4.58950457278660
O        -2.28867840827521    3.09330861384125    3.01227301829049
O        -4.37356282375918    3.42640857057183    2.37454241221432
O        -3.22690463591598    2.03660687886143    1.09468767710198
O        -1.94019525723775    0.58285571902964   -0.15938386878227
N         0.22207391832263    1.10175266173035    1.57654399133704
N         0.05467507737973    2.42997993002699    3.39776376638429
C        -3.33648426729357    2.88982723762779    2.18697528660845
C        -1.11060716518370    2.47173583741239    2.75727459962895
C        -2.07691416892824    1.38675409258971    0.78209209632204
C         0.83364812558963    1.60026881571357    2.66467696664273
C        -1.02520124197663    1.66821943548066    1.63030916822938
C         2.21119004021692    1.23831372231820    3.06104802211954
H         2.51734163152818    1.88102650715216    3.88526980028008
H         2.87182048792707    1.38994683905871    2.20583640590610
C         2.28144429156196   -0.24005711765397    3.47735276763702
H         3.32676343255367   -0.50397819407307    3.64188531835138
H         1.90245156098821   -0.84742745156712    2.65199784295460
C         1.47929309045214   -0.51231783780873    4.74197482210042
H         1.55381672786617   -1.56074433668105    5.02046814101334
H         1.85247184978102    0.08989402807438    5.56687401256962
H         0.42984930980537   -0.26891085250774    4.59369492916778

