103
CSD_code = ZAXMAM | q = 0 | S = 0 | Stoichiometry = C42H48N4O8Zn | MND = 5
Zn        6.46066918314214    0.94462953594717    8.44835654301333
O         5.30964311423953    2.51589312154229    8.99463216639045
O         4.51998030208833    0.51050681132212    9.25710854632068
O         5.55750260429968    5.78507393861886    9.57875581219286
O         6.34228805326233    2.22779859709693   12.21866912915616
O         6.52944399411314    1.59286673322169    6.42263493454046
O         8.32176270436758    1.31918979336794    7.62343356713311
O         8.15700879107946    5.41203475174671    7.03214101021581
O        10.81888881285955    2.11935386104111    8.60298321317917
N         6.49194805126312   -1.00163713735219    7.56584244001759
N         7.36526311769963    0.39219253937152   10.25496121174219
N         5.96904658091778    4.12361329275274   11.05643601854719
N         9.57665369406532    3.83382533705112    7.81030945735083
C         5.42507234282461   -1.39714673383645    6.88491725147814
C         5.47396594759556   -2.41083901930356    5.94163836363357
C         6.68568029627501   -3.03755822084210    5.69997698067669
C         7.79632278244430   -2.63071355544822    6.42323820104241
C         7.65088740723295   -1.60778497207601    7.34579658557782
C         6.70216792740019   -0.36303832340474   11.12375515634827
C         7.17749731762574   -0.64180526863233   12.39165417078534
C         8.38919282551266   -0.09729154834778   12.78438742736009
C         9.08329098475942    0.68091671521719   11.87544176267885
C         8.53818381480967    0.89504849594035   10.62101052221340
C         4.41173116529902    1.74510145184326    9.38765342667237
C         5.11873663624863    4.96252495050457   10.33648335402093
C         5.56162081115292    3.08187399623056   11.85463849828613
C         1.96688489129886    1.51808767448870    9.51981539051532
C         2.99726900607588    6.20674323002348   10.38786666615408
C         4.13078487411708    2.72153499180106   13.82440685988457
C         3.16101013378406    2.31322420852988   10.06463065296296
C         2.94710822438803    3.80132433588801    9.74487367601868
C         3.63412898342135    4.83776007844473   10.65379717808107
C         3.48569406018492    4.45703598613323   12.12121041572128
C         4.11469040103816    3.08880219383662   12.33579357510259
C         3.29303185329314    2.03990428912958   11.57254285169749
C         7.76843947252987    1.56950925347846    6.53113889382314
C         8.96186703750968    4.54992835538321    6.79032200921015
C        10.42659115604275    2.75082799955594    7.64916392666778
C         8.06410581178910    0.77448873420341    4.24646106903669
C         9.30499763708848    5.53556847097184    4.55775399381548
C        12.38272580897904    1.99787174379592    6.35245635211273
C         8.63606412824325    1.75605747851136    5.28085173356196
C         8.49819495975382    3.18372251249984    4.73007345098120
C         9.41598243867707    4.24028048590810    5.36952808745741
C        10.85659084753605    3.74895965392281    5.39904822535018
C        10.93229989444832    2.48032047369442    6.23694505342973
C        10.09500589467901    1.38157702677640    5.56493352548107
C         7.80976628419984    4.01081844409382    9.46333183475582
C         7.36980872438716    4.22746814920342   10.75695969357177
C         8.27057170765797    4.57930319051953   11.76035846580629
C         9.60569844920504    4.72085869219854   11.41127381293498
C        10.07523276060155    4.51681355167749   10.12050003127533
C         9.15351513266973    4.12597067592157    9.15114061560822
C         7.82070381349393    4.81070827779457   13.17022622565868
C        11.52407928637298    4.72389799754414    9.80332841131754
H         7.10029169092014    3.76962110217226    8.69236121972507
H        10.31105551627265    5.01768342606887   12.17514202868339
H        12.03863561360801    3.76349774469333    9.77523844253159
H        11.64111898407890    5.19712181437384    8.82958967707691
H        11.99437910333487    5.34940645828843   10.55809517832558
H         7.58089805206291    3.85702672251171   13.64080601618421
H         8.60186122148822    5.29766900388932   13.74846852253699
H         6.92682897614541    5.43297145784686   13.19224776167471
H         1.87286523777994    3.99793988334319    9.80430337668276
H         3.26445983820227    3.98341753910143    8.71629064927301
H         2.29238078451278    2.01986923432748   12.01445338176442
H         3.74168896966238    1.05366010776002   11.71084993585473
H         3.97599617450880    5.20594788231423   12.74946921500073
H         2.42897522943195    4.42749756898587   12.39793699820552
H         3.46663164595202    6.96877367400200   11.00606383740469
H         3.13722213954004    6.48578210415221    9.34760136763441
H         1.93322589770348    6.18093213735841   10.61189979962715
H         3.11487069265052    2.64425017966235   14.20478298382409
H         4.63786762409579    1.77064553440623   13.96606543164525
H         4.66011643139948    3.48036904274927   14.39733643695210
H         1.04811152871096    1.80627342089136   10.02778395514064
H         1.85081133926809    1.70260146875588    8.45418444595920
H         2.13664370341030    0.45473211903841    9.66680962627707
H        10.57890614778230    1.13722418994664    4.61486166339993
H        10.11149530029754    0.49115568698344    6.19629361567759
H         8.73150237145000    3.15915458479557    3.66121857798679
H         7.45790991011067    3.49812129437516    4.83790180690855
H        11.50414002553143    4.52180874436676    5.82264094121687
H        11.20247645684731    3.54248736356911    4.38302694928592
H         9.95013896356301    6.30313606483389    4.97960181533948
H         9.59753519624445    5.36160116581042    3.52475142888481
H         8.28334125081785    5.90354154205743    4.58291837944616
H        12.43394976821010    1.12350506165114    6.99523629595959
H        12.77560677408227    1.74324514867502    5.37082649405705
H        13.00708985931898    2.77610615015205    6.78651390756677
H         7.00857992678771    0.98252359899061    4.09231718972772
H         8.58919745123556    0.86626624428668    3.29720069874927
H         8.16335087702022   -0.24990309612954    4.60264349150840
H         4.50653401986000   -0.87882073059650    7.11700666820237
H         4.58272034051538   -2.69780465914231    5.40559239728198
H         6.76413633108828   -3.82605438959373    4.96561873928184
H         8.75888523721103   -3.09461183726250    6.27320570453863
H         8.48869621538991   -1.24796950939137    7.92534390596434
H         9.06858522225735    1.47376649472296    9.88091199931611
H        10.03111945494292    1.12995069901832   12.12533779072428
H         8.77872159750934   -0.27526678800729   13.77633967317326
H         6.59943759558193   -1.25913310415185   13.06199028325867
H         5.75201437638685   -0.74691684669792   10.78293086560704

