112
CSD_code = ZAXMUI | q = 1 | S = 0 | Stoichiometry = C54H51ClNP4Ru(1+) | MND = 6
C        -0.91364602951082    8.61378748457512    1.50897938794211
H        -0.39583785373766    8.62960682579405    0.54661811247544
H        -1.44083823783918    7.65865024301848    1.58832149392223
C        -1.89127283697498    9.78894059384609    1.59749816959652
H        -2.93428251087352    9.47350000100715    1.48888932295853
H        -1.68316033293397   10.51503012905760    0.80303037736556
C        -0.22776082149677    7.18161477424142    3.80305762210979
C        -0.69679092324347    7.29203999288112    5.10385080432996
H        -0.67865219125104    8.25109067058387    5.59718087636140
C        -1.20040718718407    6.18351664550798    5.76437870040484
H        -1.56702275024478    6.28243989541714    6.77572313448675
C        -1.24155420173305    4.95598285048626    5.12891217031025
H        -1.63334716793633    4.09155793535221    5.64277626052544
C        -0.77870679430983    4.83793563923387    3.82650858443197
H        -0.81015180187888    3.88190241387105    3.32603457491556
C        -0.27717655943224    5.94160502235880    3.16578999731221
H         0.08886452761972    5.84348080486435    2.15228106958148
C         1.84832716483768    7.89024213419762    2.06995439974101
C         2.25223788037548    8.22661652490715    0.78116379033980
H         1.70328729297828    8.95352816984289    0.20236770956403
C         3.37728598250998    7.64234947587690    0.22802807873858
H         3.67462643819571    7.90874188163361   -0.77490517540924
C         4.11437553718440    6.72013618097371    0.94920383042985
H         4.98482740767263    6.25801823937248    0.50951629458906
C         3.73010883659201    6.39358350591185    2.23908800238354
H         4.30177957461205    5.67836966222345    2.81147202918349
C         2.61140575732000    6.97821592172102    2.79944192531111
H         2.31802706314743    6.70392583681891    3.80346926182499
C        -2.77952547536558    9.92924194543548    4.38321123256939
C        -3.32456536071052    8.66197121057562    4.21620916400580
H        -3.18591124154702    8.11918436388726    3.29303372378715
C        -4.05365523288370    8.08298398739571    5.24105257866831
H        -4.47859262192543    7.10000667539157    5.10387707357738
C        -4.23675633528419    8.75696805640351    6.43627940553993
H        -4.80773650977224    8.30127081091280    7.23104037102152
C        -3.69027045156504   10.01981938669896    6.61081954198008
H        -3.83775130681995   10.55155332869591    7.53967973180690
C        -2.96128332192204   10.60161031709881    5.59227076854583
H        -2.53446892687332   11.58983401401509    5.71397549060630
C        -2.67132670100750   12.23976827212420    2.69865726115008
C        -2.02665208598265   13.13268861841567    1.84459977127597
H        -1.02321341539748   12.91166361649540    1.50542105628763
C        -2.66288493772021   14.29064640753688    1.44036386115262
H        -2.15631107796941   14.98273177454374    0.78436718452330
C        -3.94813694009067   14.56101749737914    1.88535356877420
H        -4.44688991238686   15.46669213363908    1.57528932377078
C        -4.59505833979395   13.66856612047259    2.72489069496947
H        -5.59958810859855   13.87649024440130    3.06206756816437
C        -3.96307683213609   12.50751925394352    3.13575398919661
H        -4.47204404127806   11.81598990921170    3.79150357646437
C         2.25842799631588   13.20588293956483    5.28997237625424
H         2.47389036613267   14.25649014808454    5.50829158561348
H         2.21084445397431   12.64094833377338    6.22759715360263
C         3.30048528758053   12.58051153732775    4.37235858262226
H         4.31778672225584   12.65363056175183    4.76670768603313
H         3.28231460510860   13.07094709491830    3.39103329904391
C        -0.59469535519505   13.59697454040276    5.62850096028521
C        -0.45299188709452   13.34663558726489    6.99014070829639
H         0.45498581838129   12.90427917371952    7.37375520744060
C        -1.46831163674498   13.68335915670917    7.86924140829883
H        -1.34334318213601   13.50118925372681    8.92721896199629
C        -2.63648601560850   14.26222486731833    7.40227398798771
H        -3.42601545670877   14.51917956995202    8.09169873710094
C        -2.78141735523472   14.52227216551277    6.04877965711983
H        -3.68327385221119   14.98422707079064    5.67695768310926
C        -1.76837334563723   14.19368544498129    5.16808620602765
H        -1.87363116142927   14.41462365523499    4.11595123714994
C         0.78819080809214   14.55760604074119    3.35401544325999
C         1.15645653418519   14.46698811131455    2.01682560419624
H         1.29798420431750   13.49949928516217    1.55807789897767
C         1.33411458056785   15.61640502955747    1.26530956988613
H         1.61496270026163   15.53589721046385    0.22594420183958
C         1.15266925717985   16.86037010967403    1.84317731639451
H         1.28621120794414   17.75617437856162    1.25604868218051
C         0.80414842128822   16.95589889099985    3.18203582902692
H         0.67217993793320   17.92512641142759    3.63920144311219
C         0.62712057606258   15.81374505465592    3.93814390849632
H         0.35900310792028   15.89597897299763    4.98257443865668
C         3.25579318072377    9.99065050544977    5.67304218930581
C         4.18212242893860   10.47125718399496    6.59289451046315
H         4.71412012748242   11.39328130790594    6.41270207436744
C         4.44041376530163    9.75859329835093    7.75145184852847
H         5.16105817545064   10.13764789079107    8.46056758957819
C         3.78746515755385    8.56262342940164    8.00189904858533
H         3.99766383153371    8.01197988093628    8.90620640661851
C         2.86919725456491    8.07293017780842    7.08624087661093
H         2.36055956061456    7.13779828939459    7.27060715671037
C         2.60555919054944    8.78665019879781    5.93309873582952
H         1.88546339339009    8.41697194387321    5.21099603503042
C         4.12414428569308   10.26897182211760    2.97682068724818
C         4.99195953922405    9.23561292882616    3.31520432405401
H         4.87944372546212    8.71698445190836    4.25652799529985
C         6.00706276475807    8.87663229629967    2.44755635579547
H         6.68495772084552    8.08195152391717    2.72064611152523
C         6.15568780070787    9.53143618520821    1.23678332535281
H         6.94968325987758    9.24700219438833    0.56326128840266
C         5.28340246568982   10.55012105446405    0.89016172836539
H         5.39231406859744   11.05910156629757   -0.05557922778025
C         4.27214626954466   10.92195266004282    1.75492200341764
H         3.58821013052298   11.70933968996604    1.47385434327914
C        -0.04414333455058   10.29486400251577    6.70073037181691
C        -0.28599932364852   10.00894533207003    8.08403198829214
H         0.66319817416586    9.93887436028570    8.61713764970033
H        -0.81502212849204    9.05955211087268    8.17481223713862
H        -0.89504841278517   10.79690662533746    8.52684537296650
N         0.15940121584947   10.48675752043192    5.58021351448594
P         0.37843161438103    8.62911743483794    2.85596465108103
P        -1.73189240342699   10.75822233628334    3.15741882818659
P         0.63858009576849   13.07149735297090    4.39858417481268
P         2.81721945614769   10.81862583089845    4.11131479017108
Cl        0.98077817549588   11.12246329050943    1.41904211393985
Ru        0.51178535112816   10.82070532601620    3.73287138326010

