106
CSD_code = ZAXPAR | q = 0 | S = 0 | Stoichiometry = C55H45AgNP3S | MND = 4
Ag        4.48768800866312    3.96155284989394    4.02981338196670
N         2.38719718426801    4.29024960212492    3.70341252198663
C         1.58204066116332    4.94585480047971    3.14779432528657
S         0.47477664608445    5.79902953157344    2.40403834621971
P         5.51118471488594    2.22599616097644    2.43561394266652
P         5.31859740399555    6.36311490882625    3.45748291379776
P         5.61494609301357    3.54391892674931    6.25662453503503
C         4.60347828152258    1.96788142364057    0.87402905900514
C         3.29852298417613    2.44385024852536    0.79406736182934
H         2.85777194135507    2.94635400116869    1.64693439354187
C         2.57139272613658    2.28246777880767   -0.37179163452985
H         1.56131414014493    2.65987145878440   -0.42682935125273
C         3.14375664555586    1.64657757046071   -1.46092217537810
H         2.57976487740202    1.52349062699156   -2.37391956559362
C         4.44330515838469    1.16908280890371   -1.38286757406545
H         4.88838800159757    0.67248852867405   -2.23313928718063
C         5.17616541742427    1.32805545747147   -0.22148896263075
H         6.19119700740293    0.95973321281698   -0.16504408470208
C         5.57930815472008    0.54462618999716    3.12798132495262
C         4.63429443433093   -0.41946097564183    2.79450687443170
H         3.87993078413573   -0.19863715004911    2.05214960961338
C         4.66117690741964   -1.65730780111572    3.41169058818783
H         3.92774925908161   -2.40411831304806    3.14449280057834
C         5.62294793037171   -1.94129674806598    4.36619834503528
H         5.64449560458390   -2.91056759131982    4.84172526705743
C         6.55482388290615   -0.97699549052697    4.71652012262752
H         7.30094493305890   -1.19097476173357    5.46782904467412
C         6.52663444921242    0.26376507891732    4.11194648217368
H         7.24608977223475    1.02084230940399    4.39715108934811
C         7.20841269632913    2.46610137835396    1.80037845174186
C         7.57154179669207    3.77504113843140    1.49454493997867
H         6.85348639441920    4.57400279570766    1.64359064585295
C         8.83718976200969    4.06371117137834    1.02269711704406
H         9.10669529510249    5.08546001059453    0.79908299682348
C         9.75596254325868    3.04060382025368    0.85134024505853
H        10.74955469141645    3.26038715485910    0.48923438279867
C         9.40009088165761    1.73460065011263    1.14704908031270
H        10.11498224992813    0.93595872979635    1.00992590778653
C         8.13273742583560    1.44265788694055    1.61969807597473
H         7.86630569486253    0.42121218387354    1.85299112311148
C         4.24772914815469    6.94951269889775    2.10867167851382
C         4.00640316062668    6.06547274551230    1.06095937878525
H         4.46019763114358    5.07967143468174    1.07684081119346
C         3.17421083901779    6.42787284253746    0.02025660810577
H         2.98009656568463    5.72931842201784   -0.78073384596856
C         2.57165494921506    7.67513961022277    0.02317891950168
H         1.90261918571978    7.95296344416458   -0.77752530121911
C         2.80715394881349    8.55732656933912    1.06450069133067
H         2.32474462011105    9.52388596962332    1.07259085971482
C         3.64250355066093    8.20096081163905    2.10752573652676
H         3.81169451395933    8.88515182743501    2.92769214135399
C         6.96072982487061    6.99747827440658    2.98010966038194
C         7.22607035199654    7.60816167693323    1.76004743152442
H         6.41895486668829    7.80000295558104    1.06656709864529
C         8.52271202808961    7.97147961707641    1.43879287900852
H         8.72413965681341    8.45189777766718    0.49190684458583
C         9.56018864148153    7.72038400128811    2.32165075601274
H        10.57028468633331    8.00299354164821    2.06317648133635
C         9.30202534955680    7.10020250371033    3.53505103564609
H        10.10886476418285    6.89556589504904    4.22415319845751
C         8.01095332363630    6.73564435101464    3.85866132589059
H         7.80141658083363    6.24109365014320    4.79915858059049
C         4.85688974411594    7.47688794956826    4.82140979052811
C         3.70349330635818    7.14105239188082    5.52677361386764
H         3.14293276285020    6.25902052334966    5.23895681661515
C         3.27499119033938    7.92925057887933    6.57669780344102
H         2.37778990353980    7.66485286524082    7.11614504425290
C         4.00024215683402    9.05356822695748    6.93828003606739
H         3.66782023472132    9.67009528291377    7.76071444225631
C         5.15161137662276    9.38727421757415    6.24461891214111
H         5.71683364840529   10.26523540962376    6.52425026913992
C         5.58264776537753    8.60547826958363    5.18709377402603
H         6.48000638330399    8.87444564238433    4.64676917271536
C         5.16464988881963    4.50123110841312    7.73587154670533
C         5.70261281494405    5.77955851276535    7.87437038654501
H         6.42192267410814    6.13881833889935    7.14937038842909
C         5.32186335946374    6.58316300829066    8.93011561139075
H         5.74866813138304    7.56974512069219    9.03503063513453
C         4.38692485348304    6.12650590965812    9.84595186930214
H         4.08600530516287    6.75639739461524   10.66990349722240
C         3.83354040030388    4.86530002394587    9.70007691789640
H         3.09895466412849    4.51214555139656   10.40912931913846
C         4.21465361056893    4.05328150247085    8.64697375476105
H         3.77677990352189    3.07136502257246    8.53020065875878
C         7.43699361460411    3.59105063644992    6.34729100646944
C         8.13123411378960    3.51674378191441    5.14483482415410
H         7.57599669789233    3.46826915762640    4.21590137438299
C         9.51345472286808    3.52890346889969    5.12402087966535
H        10.03548027920669    3.47237522627474    4.17960484903503
C        10.21526917032352    3.62471317146731    6.31405095994745
H        11.29528547071467    3.63728415229630    6.30680545806065
C         9.53105470046189    3.71680631940509    7.51655118701968
H        10.07985603008114    3.80261532827052    8.44339547309006
C         8.14817060895653    3.70299665180326    7.53902826075313
H         7.62041113387603    3.79519224546274    8.47864380518376
C         5.22996934330828    1.83336839482536    6.75782815803089
C         6.01910755324430    1.08240044662211    7.62125691829482
H         6.92634970497798    1.50164357786590    8.03224099675088
C         5.64501463940941   -0.20879291573565    7.94642074832828
H         6.25954098467686   -0.79073268511438    8.61835499521134
C         4.48885926047918   -0.75754301855876    7.41574042121380
H         4.20344030463771   -1.76661166604653    7.67381374161640
C         3.70199476267468   -0.01438398196628    6.55144972363597
H         2.80316362958924   -0.44070656072889    6.13178961932022
C         4.07371045338542    1.27464078481001    6.22064491614921
H         3.46511711780532    1.86423244805965    5.53886179224498

