114
CSD_code = ZAXPIZ | q = 0 | S = 0 | Stoichiometry = C53H54NiO4P2 | MND = 4
Ni        3.65246223236121   11.40994082946310    4.78701417524150
P         2.55673826117174   13.26039696260124    4.84231391946339
P         5.00436039464261    9.94180171472936    3.90908279358528
O         2.25442535322848   10.76597963675808    3.61271629803187
O         3.91571641516760   10.30661053915112    6.93633563587113
O         3.87007940777159   14.94209153287191    6.65790210179563
O         0.87708212039012   15.59555614992285    5.09385972384940
C         1.41760588579130   11.62495951090656    3.13231966869290
C         1.39357879600614   12.93229390169755    3.53243812739478
H         0.70567954802728   13.67838455322051    3.17153986685973
C         0.50733870957813   11.12811760835085    2.07160702334636
C         0.95933866505063   10.13651419705290    1.20499863758385
H         1.96313170337950    9.75835290837501    1.32553908176099
C         0.13817432265316    9.64911006947254    0.20659413021887
H         0.50251748329218    8.88061687728105   -0.46058600710350
C        -1.14813567457658   10.14222133711651    0.06315842408070
H        -1.79337268552466    9.76022847257122   -0.71510730547757
C        -1.60811876095990   11.12428011823817    0.92553181773405
H        -2.61464440426973   11.50472061401765    0.82053768977548
C        -0.78780992542550   11.61540216659731    1.92430529635580
H        -1.15789644369341   12.36681489259287    2.60658785665712
C         5.03429503628473   12.01324893936961    5.89070534828387
C         6.05309114814518   12.94498532483712    5.80854917786680
H         6.14478390257160   13.58420162786567    4.93956746261125
C         6.97958915655633   13.06317430642602    6.84031384305769
H         7.77200511963462   13.79494976838473    6.76649081132025
C         6.89455608038384   12.24779842483445    7.95113866893733
H         7.61677523612603   12.34102331638496    8.74972377083006
C         5.88317160329366   11.29931924080451    8.05869477531927
H         5.84075000774912   10.66785542963403    8.93373608370935
C         4.96503271374747   11.19357990050482    7.03078332216701
C         3.74087477009104    9.30094372585913    7.92205482126986
H         4.72871929181296    8.91516179841833    8.21683233397185
C         2.94173057056394    8.18104357402046    7.26601629435360
H         2.03556064553896    8.59589229683036    6.82987127650090
H         2.67396899576355    7.42536830505338    7.99955184612143
H         3.53214177695530    7.71956751849797    6.47852864418336
C         3.00973320506541    9.85447527935986    9.14786434236244
H         3.49537057830520   10.75802864392679    9.50948383995184
H         3.00403054597659    9.11439012766231    9.94425943646026
H         1.98230642895087   10.09595966143134    8.88621697954386
C         3.42732406723825   14.78864344288920    4.40157049066082
C         3.56560229455440   15.20792344563558    3.09113026607689
H         3.09200665184241   14.63462709256418    2.30579353924713
C         4.29058041678782   16.35161373051655    2.79766061718173
H         4.39174127346555   16.68653217201981    1.77576422438864
C         4.87985418380789   17.06726876295181    3.82377658666441
H         5.44400680997239   17.96236064054708    3.60376894641172
C         4.76084307694033   16.65278808456522    5.14273263906552
H         5.24333101535577   17.22640014769674    5.91989925207676
C         4.04368963541656   15.50195433244624    5.43955431780135
C         4.24579315938346   15.62630197315572    7.84139537632956
H         5.27388068565067   16.00476848065281    7.73803245293344
C         4.20414773599480   14.59172921584601    8.95970719869569
H         3.19295485614119   14.20526180074037    9.05694668740418
H         4.51145177512124   15.04306798173361    9.89904939737353
H         4.86932853415377   13.76733866635482    8.71937315262801
C         3.28528635530392   16.78199621962244    8.12750762312473
H         3.26283773738976   17.48315319980550    7.29603493762739
H         3.59375950072610   17.31083694493353    9.02542382977588
H         2.28192081347696   16.38735542779228    8.27362918794621
C         1.50290612893701   13.69558567297949    6.25921224520043
C         0.71541244129404   14.85310837206349    6.21543178913957
C        -0.11937802462159   15.14202623171083    7.28733969917887
H        -0.73425128713803   16.02977824021815    7.29435581325681
C        -0.17337360768578   14.28097945918820    8.37451271866553
H        -0.82654277409426   14.52225798157100    9.20101599035529
C         0.58788710155592   13.12740499402177    8.40619597412410
H         0.53006734040668   12.46303499237003    9.25618785539964
C         1.42566529197757   12.83909686383204    7.34078347620880
H         2.04391550960018   11.95236168573171    7.33002838447393
C         0.15012372781080   16.79764080456632    4.89715650079330
H         0.11497658773155   17.36647190416997    5.83836657225984
C        -1.26993200956043   16.49915194494225    4.41444668560712
H        -1.22761266464276   15.97639535139891    3.46186041241299
H        -1.82413930918557   17.42492029354350    4.28494338418607
H        -1.79612121320749   15.86927581215215    5.12814012865087
C         0.92834842640908   17.60201331216245    3.86066591128441
H         1.93867716504086   17.78977880548899    4.21483460054206
H         0.43104242713403   18.54895534524264    3.67051002791472
H         0.99541765798425   17.03780510510495    2.93467748095504
C         6.16787500249793    8.92315451514695    4.87387767008259
C         7.22921541122839    9.55757826206162    5.51584976856724
H         7.38929214911901   10.61448411180801    5.35860181042478
C         8.07163011831769    8.84330752039216    6.34600272740308
H         8.89032123887708    9.34686578983905    6.83905621698690
C         7.86308050179295    7.48867490487999    6.55147350464867
H         8.51861427443260    6.93136895243951    7.20466026858744
C         6.81211720164520    6.85069749215667    5.91444160044254
H         6.64850171544704    5.79340616534100    6.06748497483190
C         5.96634721279851    7.56301816666437    5.08222817166911
H         5.15102808053633    7.05688055951110    4.58353633713904
C         4.26864986674795    8.70571959066544    2.78591436269254
C         3.15121350749952    8.01947762088051    3.25604785188790
H         2.76340930720778    8.26327744392583    4.23472783369181
C         2.52500225573503    7.07597525026727    2.46426917620298
H         1.65497094779829    6.55174670942619    2.83247676391220
C         3.00373361089882    6.81660763028786    1.18960555318686
H         2.51176090402916    6.08505942726070    0.56500067674458
C         4.10425858086889    7.50772508285527    0.71144344364287
H         4.47048332693113    7.31592383144360   -0.28717974495693
C         4.73678161378984    8.45180725331720    1.50327001104530
H         5.58680941393887    8.99553791743759    1.11632641951418
C         6.12224022990446   10.87720246334005    2.81504549636682
C         7.35307722529993   10.40771421454136    2.36995376861651
H         7.70438424451788    9.43356598642642    2.68207567819509
C         8.12923488155699   11.19461845917495    1.53724871089499
H         9.08655530240976   10.82985262487979    1.19316849237668
C         7.68544209029317   12.44787595871334    1.14551570758615
H         8.29993022817564   13.05788999928901    0.49940581245664
C         6.45923330190164   12.92003980735741    1.58599117716832
H         6.11470693051155   13.90012327021421    1.28960313834490
C         5.68205783387317   12.13552526863736    2.41703254600540
H         4.72077377746984   12.49307101133098    2.78385566506989

