40
CSD_code = ZAXYIG | q = 0 | S = 0 | Stoichiometry = C14H22IIrOS | MND = 8
Ir        0.57227099445527    2.03775146778234    2.39245439682273
I         2.64242021361174    3.22793848959613    3.85760845080644
O         0.41203998978082    0.93257228388320    4.11464572988125
C        -0.72469539895126    0.47337230430315    1.73430995479660
C         1.13130993800108    0.01283231588403    4.56576187699034
C         2.22722886876163   -0.62339344221226    3.94545288943564
C         2.76208989731556   -0.42208047745073    2.69458538400605
C         0.79766315694408   -0.46817438170192    5.95801245285703
C         3.95689740049103   -1.23216186064067    2.28890814717198
S         2.26234169722095    0.67104387175233    1.50420985472045
C        -0.00131811258087    2.86953200215762    0.42897414555296
C         1.02730592051092    3.64700705106817    0.95015478486276
C         0.84761191352828    5.05032669984504    1.47859365150761
C        -0.30575787750798    5.24233741964395    2.48440386520265
C        -0.66636444116061    4.01338749309106    3.27629355659224
C        -1.57109150181444    3.08877465120661    2.86106728094250
C        -2.31444270999560    3.14908037563469    1.55168385128204
C        -1.42580128458191    3.38258722608378    0.31445716421308
H        -0.16731008293892   -0.46130753039806    1.69913822161443
H        -1.17516443082881    0.62015273695839    0.76082816696566
H        -1.51685698321687    0.35049811149808    2.46800101654725
H         2.71673408832921   -1.37688734988202    4.54843055691703
H         0.69757746155144   -1.55049914915597    5.97653572475843
H        -0.12518307853726   -0.00534893795909    6.29747569897045
H         1.60465376972299   -0.18324357952062    6.63091738905190
H         3.87346252588643   -2.25691527643959    2.64417835175447
H         4.84880815461346   -0.78833612267447    2.73223091702623
H         4.07794701587141   -1.22786080337521    1.20880695109516
H         0.27545871656402    2.13959833164052   -0.32774609622847
H         2.03219315857974    3.46527360139501    0.56965358914324
H         0.69493821295650    5.71111101226851    0.61728316585592
H         1.77976804627375    5.35578997596685    1.95278563893695
H        -0.01631913138751    6.02822431173206    3.18364908252431
H        -1.20326810819955    5.58070569266962    1.96189958558596
H        -0.37009410502249    4.01385561935540    4.31841621949640
H        -1.99621827226378    2.41978698944301    3.60199395941189
H        -3.06134191495794    3.94830060814420    1.61867742157353
H        -2.85971016984293    2.21416790968535    1.42605446143300
H        -1.90004325021908    2.89842702609051   -0.54100081361895
H        -1.37604028697003    4.44987333264315    0.08771335353814

