40
CSD_code = ZAXYOM | q = 0 | S = 0 | Stoichiometry = C17H18IrNO2S | MND = 6
Ir        8.45055432452823   -0.30030425698420    1.83426709286377
S        10.37698953182034    0.22034635845323    0.67018253598952
O         8.13563736820032    1.68220879678338    1.67896609038855
N         9.04257108659183    2.44032673969406    1.04182662601313
C        10.11575651221912    1.90332869707492    0.49542602289361
C        11.08576624498163    2.67624959271608   -0.27379184239373
C        10.70096976958961    3.59500178891937   -1.24712804010053
C        11.64064209374056    4.27903854850068   -1.99738175944695
C        12.99730344286047    4.05770411938687   -1.78635905300217
C        13.38964671338371    3.12408644169833   -0.82332973683166
C        12.45082886398734    2.44005733668269   -0.08861768525574
O        14.00477391947024    4.67994957523630   -2.45690660955134
C        13.67408884254050    5.60703147231422   -3.46150790021674
C         8.75805796810285    3.85320493789499    1.13190312105119
C         8.18905660158816   -2.38286371115001    1.58323319023227
C         6.98190257638244   -2.75751560884280    0.81906005661628
C         5.85459027938577   -1.73644434391649    1.24018137152201
C         6.35874204089629   -1.03352012229164    2.42353035896711
C         6.95725487760095   -0.86916753003214    3.48311158479602
C         7.77760835411326   -1.21332171785540    4.64832778361638
C         8.85756192696433   -2.24505050533994    4.13876269395313
C         8.79868995225380   -2.21299042869374    2.66293653042337
H         9.65366624306124    3.75771758371537   -1.45198148283481
H        11.29990687275803    4.97451947578910   -2.74834395755507
H        14.44419496875465    2.95228236654620   -0.67809018408754
H        12.75822122873283    1.70985783702985    0.64332300636876
H        14.62349869464188    5.96219704649299   -3.85907295808232
H        13.11202472757056    6.45567053723493   -3.05771110194004
H        13.09810238711992    5.13927527845566   -4.26656269849012
H         9.66443747220296    4.43386200406405    0.97544785258149
H         8.35613032553191    4.04377460232575    2.12800124986462
H         8.00057079243461    4.13897245112961    0.39832078940616
H         6.68370372026495   -3.77700212805367    1.07794766543311
H         7.14267795666852   -2.70332021230997   -0.25764491605801
H         5.66074903919620   -1.04008735079520    0.42419863098166
H         4.92853248854727   -2.26683261538045    1.47427578594320
H         7.16179016277016   -1.66233631763864    5.43135389006876
H         8.27049405249034   -0.33041406028877    5.05555595257029
H         9.84051087027306   -1.96513337399996    4.51772411425382
H         8.61759470577833   -3.25025930456539    4.49546592904847

