43
CSD_code = ZAYCIN | q = 1 | S = 0 | Stoichiometry = C22H15N4PtS(1+) | MND = 4
Pt        3.65389700601148    0.79131377995537    9.25457019623939
S         7.86391251069980    1.43294763633408   11.07952959838223
N         2.72925722188201    2.56395475475124    9.26071348248367
N         2.02907189763459    0.23819354876434    8.48746561234126
N         4.10038187271088   -1.15032084541377    9.02611882382955
N         5.31196942909696    1.38090883694520   10.04444138766794
C         3.19196553150345    3.73408144322239    9.69453452570604
H         4.19783020864845    3.73198696996256   10.09510532046573
C         2.43891545955252    4.89474343557955    9.64179405644150
H         2.85282868664735    5.82089078876004   10.00482686552325
C         1.15501257051778    4.83885079843308    9.11720661234779
H         0.54301589502839    5.72519554386041    9.06204832387747
C         0.66895375962198    3.62382445797860    8.66366588061056
H        -0.32391313836954    3.55304624298590    8.25071682602215
C         1.47114126069255    2.49065674993654    8.74269323744566
C         1.06158728557014    1.15377475593539    8.29710609752894
C        -0.14576358206414    0.77145644000767    7.73496305875333
H        -0.92632947977730    1.49274353648753    7.55928006191973
C        -0.34369581360962   -0.56595607316198    7.36526433321445
C         0.69267787674102   -1.48477772485976    7.57943306488302
H         0.54792790973271   -2.51953382298937    7.31739152846957
C         1.87995255699371   -1.05517246620640    8.15059003383974
C         3.07225435228739   -1.84933648415561    8.46779960586738
C         3.18491245484991   -3.21556188574610    8.23429647456736
H         2.36269568486127   -3.75573460700818    7.79445468684499
C         4.35554528868356   -3.87374144439917    8.57212440709405
H         4.45536278660991   -4.93332058194555    8.39753740126136
C         5.39335679202292   -3.14668351986244    9.13830231280886
H         6.32056018888229   -3.62033384964841    9.41536929220729
C         5.22371095489205   -1.78866989247101    9.34786119236258
H         6.01061290084650   -1.18937413591510    9.78739691932084
C        -1.60898307469474   -0.99529405535606    6.76909972361458
C        -2.82008257677422   -0.47457319069340    7.22733473008255
H        -2.82716199310960    0.22718518592949    8.04832392110419
C        -4.01420747061822   -0.88900073938218    6.66954078656490
H        -4.94534397256520   -0.48983463081839    7.04091290884788
C        -4.01751893876981   -1.81467684148960    5.63823106367090
H        -4.95073211237951   -2.13236973000998    5.20030365313670
C        -2.81968139036107   -2.33142960268493    5.17061088887889
H        -2.81806789760880   -3.04663681793124    4.36265113726555
C        -1.62338322005972   -1.93262520811732    5.73514354244373
H        -0.69253029999230   -2.31989281623381    5.34769232945013
C         6.41548461753068    1.37339606067103   10.48355409461531

