49
CSD_code = ZAYDIO | q = 0 | S = 0 | Stoichiometry = C24H20N2O2Pd | MND = 4
Pd        7.42446883856317    6.47046556902047    1.96656019491365
O         8.71512628811267    7.77307527255607    3.06868125641777
O         8.02938047718538    4.94324073527939    3.13233608348802
N         4.79296253560110    5.32485332674774   -0.96609539403900
N         6.73374542925618    7.89978971558336    0.78434977350444
C         5.61892497864682    6.12078935909295   -0.17861535066282
C         6.21384087246560    5.37455623533186    0.83414831935805
C         5.73451950277549    4.04532798293326    0.66181736290435
C         5.97182552525253    2.85239419288376    1.34975335649638
H         6.63395021345451    2.86189880479318    2.20191741818718
C         5.35698920734636    1.70367382034491    0.91159738818829
H         5.52325098564584    0.76911477516412    1.42751980934997
C         4.51867393841429    1.71627770795250   -0.20871022666783
H         4.06341944552005    0.79232587436072   -0.53497967064639
C         4.26292570083637    2.87675814397279   -0.90759890802081
H         3.62607782454513    2.87088829457306   -1.78016950769112
C         4.85954823730945    4.04941576466685   -0.45883071167713
C         5.83303573159522    7.53637412799677   -0.17270170895380
C         5.20898842967520    8.51045108761345   -0.96039116042420
H         4.46930505630036    8.21889696080558   -1.68786028528871
C         5.53751985939026    9.83905928594059   -0.78822033191373
H         5.06309976843156   10.59889168155807   -1.39092324946816
C         6.48101321501615   10.18605606559359    0.17207977201892
H         6.76528582333781   11.21382387872125    0.32881055618199
C         7.04326639332401    9.18162301006109    0.94073962482943
H         7.76962488355943    9.41033864886602    1.71317434886499
C         4.14875469136256    5.67624943128335   -2.15962986286750
C         2.79444783058033    5.40508514003298   -2.33094676852783
H         2.23954471874650    4.94730056153324   -1.52591771471054
C         2.16927324716719    5.73707856591387   -3.51922279870314
H         1.11752016391340    5.52731611222701   -3.64644722734607
C         2.88323322520198    6.34300315406747   -4.53965872264152
H         2.39080684831170    6.60333235620876   -5.46441117762728
C         4.23193818731060    6.61320134488897   -4.37151327376548
H         4.79366133803679    7.08002814762960   -5.16707601518527
C         4.86720329713671    6.27809186606292   -3.19067750801094
H         5.92063116316311    6.47451707321760   -3.05488082693025
C        10.27362815278582    8.49482673747378    4.70081747000992
H         9.84179681622713    8.73813332148155    5.67040649155029
H        10.27913553556095    9.39060713821826    4.08420039053925
H        11.29282742145370    8.15123727269031    4.85729398328524
C         9.44066491734116    7.41573852041155    4.03484209146520
C         9.54056365432343    6.12362370387950    4.55869810142658
H        10.20721811393450    5.97796781231971    5.39522223993316
C         8.85077120582392    5.00276486869402    4.08999538950616
C         9.11945165696439    3.69436719255764    4.81060617572306
H         8.51023101936735    2.90624870804086    4.37631293459289
H         8.88333424244354    3.79304857666474    5.86762283089522
H        10.17009339127810    3.42817207208810    4.71787503814485

