51
CSD_code = ZAYFOX | q = 0 | S = 0 | Stoichiometry = C21H21Br2MnN2O4 | MND = 6
Mn        7.15014342609356   11.46052242458085    5.81742360113530
O         6.03219340935502   11.51317450743880    4.28546009699940
C         6.45581099175799   11.22874604358330    3.10128663976149
C         6.01805255497638   11.95755428289857    1.97212302838015
H         5.37243752059237   12.80578572148735    2.13902066433118
C         6.41509846139896   11.61502418302964    0.70428156487497
H         6.08890233245619   12.19460844459492   -0.14630683530878
C         7.24420192410203   10.51040585364291    0.51243151332949
Br        7.77597953077264   10.04219575578188   -1.25449720325314
C         7.67101661103329    9.74815470685640    1.57270018509079
H         8.30310351795989    8.88723365881432    1.40900829123897
C         7.30032837654409   10.09438281202181    2.87606384543319
C         7.65545065265201    9.26392592836049    3.98513735878535
H         7.99242474733223    8.25096555361213    3.74863177112937
N         7.54152056346498    9.61447285762616    5.22272157385023
C         7.66389480380863    8.59313961335452    6.23235395900723
H         8.43899605892506    8.88877635278206    6.94870233303879
H         7.94112009293229    7.63073213330709    5.78036579971028
C         6.32102466730253    8.43637912914678    6.98065150318661
C         6.04382546420690    9.68308288612175    7.84028733384024
H         5.15379677431820    9.48566453143802    8.45103706599683
H         6.89469755704377    9.83401995083485    8.51742320419486
N         5.87033545991323   10.93091898504604    7.10940127983703
C         4.89799218649627   11.68684682490751    7.51999911514427
H         4.19963439240392   11.30216413907417    8.26471019045005
C         4.70061944477552   13.04912656821406    7.13353528267448
C         3.52883648490945   13.71976496749227    7.50310838405867
H         2.75201657032602   13.18422818784395    8.02909546018730
C         3.36330456231455   15.04897291301204    7.18980845202051
Br        1.75402010682949   15.93189089505509    7.68617272894952
C         4.35524226420280   15.76685593254235    6.52495228961038
H         4.20332707553812   16.81009300674346    6.29337036442019
C         5.52467931770805   15.13562760528195    6.17866587747860
H         6.31059840700055   15.67232782799645    5.66947027804957
C         5.73555253566044   13.76687985546835    6.45634997156338
O         6.85061205303983   13.20949256705074    6.11723778964961
C         6.43059546797690    7.22703062234266    7.91341738648414
H         5.51281279327346    7.09883412789060    8.48152225623301
H         6.60096214934913    6.32057493141953    7.33828883640503
H         7.25375702466675    7.35043832970478    8.61287999720193
C         5.17549877905400    8.23117285192936    5.98659213930331
H         4.24861729032884    8.03513982125020    6.51986442397168
H         5.04145165840895    9.12333495114953    5.37520202891683
H         5.38124342122713    7.38584943663608    5.33413829239708
O         8.74559168940202   11.35538429881183    6.94463478528314
O         8.94237061557943   12.03504963933799    4.89967967710105
C         9.45698290633680   11.85892514424736    6.01686806320046
C        10.89941664277997   12.20596010017792    6.29028309914066
H        11.21505367098059   11.77442229436232    7.23572416613490
H        11.52186248742905   11.84492549903388    5.47551515274620
H        10.99659250306028   13.28882034466224    6.33610493663574

