48
CSD_code = ZAYKUH | q = 1 | S = 0 | Stoichiometry = C18H23ClN4RhS(1+) | MND = 8
C         0.11805057144822    9.74500967518985    2.84225213853464
C         0.87579798464968   10.74553331686802    2.16766282500882
C         1.64409722167010   10.08773688001638    1.13794911527873
C         1.27314162660942    8.69602940093825    1.12885338304273
C         0.37436001421311    8.47043241410999    2.21210437657910
C        -0.90843822287816    9.97238579358623    3.90113139994382
H        -0.74188082243831   10.90704785230188    4.43040534083205
H        -0.92984105051104    9.15851112266398    4.62379853488843
H        -1.89109469042030   10.02122742921934    3.42901209069760
C         0.82543075851867   12.22145762468986    2.36793441255464
H         0.19160740638848   12.49230473370002    3.20770038988206
H         0.42759355414122   12.68932695669720    1.46718282093979
H         1.82420854979480   12.62267580902577    2.53732183130745
C         2.45009479947448   10.78964860722724    0.09790402952537
H         3.16681763896651   10.11825309270044   -0.36790410237639
H         2.98794444656434   11.63079037516676    0.52905954645536
H         1.78164025699089   11.17174778233760   -0.67538186163048
C         1.69626167119254    7.71247176388009    0.09264846004843
H         2.75876616081576    7.80356364583488   -0.12663469072007
H         1.14636868832599    7.91646197043356   -0.82707061437270
H         1.48627331475501    6.69121898033267    0.39888458222224
C        -0.37618740282504    7.20921964769461    2.49573277021791
H        -0.59486279990771    7.10540417102190    3.55658854749118
H         0.17944335527898    6.33380072651370    2.16792166649107
H        -1.32593006616752    7.22754662476653    1.95897778608483
C         1.97754782997780    9.87210073950287    5.86509022224400
H         1.83789780769561   10.80956321696355    5.34056393782510
C         1.83436289134945    9.78250544744822    7.23734058012104
H         1.57182545093164   10.64239058420578    7.82858514674156
C         2.04223651821595    8.53072947376355    7.80350829624211
H         1.92478357733397    8.33558694806461    8.85984305819274
C         2.57408181705630    7.67941276621051    5.76518311119418
C         3.10675111967759    5.31151872184689    5.71643566708191
H         2.69092403838144    5.16355366461706    6.69002320277355
C         3.74727270856378    4.47511994998460    4.87908610377034
H         3.98534963104617    3.43766285683444    4.99400951637731
C         3.66103916228075    6.45389725404872    3.87560426086088
C         4.81795956150269    4.68378659023752    2.61841281766657
H         4.31991120277745    4.98958236991883    1.69754502736027
H         4.87013651924765    3.59938537697393    2.66905365418286
H         5.82850775789556    5.09613073776503    2.60935945417261
Cl        3.89386134923172   10.80854284593019    3.54670435892573
N         2.32141985216477    8.81886651420055    5.11142822413918
N         2.41508930781617    7.50333080083978    7.06702847474865
N         3.04376113311212    6.55654713594627    5.09935460049857
N         4.08705320083312    5.17825706033822    3.75093419956306
Rh        2.27584594386214    9.26052414176497    3.01114903037822
S         3.96091865438896    7.61399840569484    2.70652227602644

