46
CSD_code = ZAYLAO | q = 1 | S = 0 | Stoichiometry = C18H22ClN4Ru(1+) | MND = 9
Ru       10.46578501405608    9.90607341565096    7.98608726722749
Cl        9.73824601664308    9.13724551931450    5.89272592781819
N        10.19196071303603   11.71410145980446    7.14531150058336
N        11.16663386863967   13.32189404068118    5.68613407983501
N        12.28858210688123   11.37871971978140    6.34457777332111
N        13.31745140923014    9.53036848576005    6.73124188671004
C         9.05976403486613   12.42328160916173    7.14863124097888
H         8.22602684571780   12.01974046823021    7.70853190708330
C         8.94562921259247   13.61141616166347    6.44851568629876
H         8.02723865624763   14.17285915502451    6.45930480961572
C        10.05401871955179   14.03759912897261    5.72376636470196
H        10.06065166864817   14.95182336735349    5.14977551546641
C        11.19190824954119   12.20442299136841    6.37083657385695
C        12.19723455352611   10.19471346591835    7.02511926306637
C        13.47068411264065   11.44795817048011    5.64466164177738
H        13.72834393143374   12.29420326261925    5.04333072705215
C        14.11091414504536   10.28592679658885    5.89538304868980
H        15.06018076222553    9.93396383537172    5.54626416733545
C        13.64556606667056    8.20264398482950    7.17431046709845
H        12.72258803978762    7.64009287066823    7.31068332270192
H        14.20078769723761    8.23330995568997    8.11381060553335
H        14.25569336507482    7.70761639576303    6.42104136752291
C         9.62112002098769    7.95526059198186    8.99097384188623
C         8.64058718071252    8.98638876632635    9.10183990011267
H         7.62482497022772    8.77888196891758    8.78364126205397
C         8.94279196099752   10.20030239234619    9.71422040795542
H         8.15522217241933   10.92450733456195    9.89482078803949
C        10.25252058117852   10.48000468710777   10.19132437251655
C        11.23030978140842    9.46929299711078   10.06438233640615
H        12.20603757684430    9.61509259833811   10.51704278267668
C         9.21404995196032    6.59417619969719    8.48337332800491
H         8.29701230927073    6.71063397314072    7.89666190681111
C        10.90377306319538    8.20554767784510    9.50437928699515
H        11.63299778309012    7.40598439168501    9.55078570145341
C        10.26663769997658    5.95096814185160    7.58102051238898
H         9.86201393954851    5.03966053944570    7.15012976842512
H        11.16479061248786    5.68671822450426    8.13481082950236
H        10.52117161495077    6.62682199874350    6.76601292976221
C         8.90901417289946    5.70474279458632    9.69599447449676
H         8.56413924299283    4.73243360772125    9.35647127161470
H         8.13394919547539    6.14643259351699   10.31848431989487
H         9.80075164113770    5.56188956919773   10.30258956787587
C        10.53857348438110   11.74653118310474   10.93972384121997
H        10.26254537130628   11.61542663394981   11.98749670390513
H         9.96174715522202   12.58151258510907   10.54635387929175
H        11.59622932803608   11.99801428851782   10.89942084243556

