65
CSD_code = ZAYLES | q = 1 | S = 0 | Stoichiometry = C31H28N4PRu(1+) | MND = 8
C        12.13971438190878    2.63594787247478    9.12872888409630
H        12.26826243888142    1.88571884947329    9.89755229430257
C        13.11924616324447    3.58064147462747    8.88194211673953
H        14.04004241406805    3.57895865761635    9.43921591311421
C        12.86331673452432    4.52829536157556    7.89792651954761
H        13.55955222348432    5.31359793390251    7.64691432481044
C        10.86541415159326    3.57126512896780    7.49016212823184
C         8.78864719218874    2.51797475331961    7.19108225604361
C         7.96555113154100    3.70154125050028    5.48732455240117
H         7.24363680097625    3.97765981810429    4.74612762119817
C         9.18635897635245    4.21466172223690    5.74646069066325
H         9.74101945557769    5.01173206414233    5.29898035354491
C         6.52349213819546    1.90201468408208    6.42108509334420
H         6.46648556647442    1.22233442986876    5.56905410787764
H         5.65816170354404    2.56452846945941    6.40064611616275
H         6.51257473079675    1.32682866205207    7.34596994573039
C        10.58615605100297   -0.50293394546119    8.00141239267747
H        11.51121406518710   -0.56066407105623    7.44177757060796
C         9.28610682012964   -0.59970480940641    7.45096528004720
H         9.05458648522849   -0.72495305279280    6.40181099188975
C         8.35390280228495   -0.66391088067103    8.52007462931343
H         7.31414785071082   -0.94644757961332    8.42564519853028
C         9.10143250082740   -0.64576044411228    9.73876134788607
H         8.69348431727999   -0.82288813842421   10.72691265169220
C        10.47249627053653   -0.54532701337675    9.42025937736162
H        11.29378492543258   -0.68237781781672   10.10940569335349
C         6.68304749649804    2.88802174528632   10.25456804269602
C         5.94168140048452    1.72051262393546   10.09760794359493
H         6.46664632359843    0.79046445583200    9.91774867367877
C         4.56251087458365    1.74826873025428   10.18732546719112
H         3.99356246584251    0.83823787063415   10.07024250460624
C         3.91282117392535    2.94692290906542   10.43646250650146
H         2.83650523527051    2.97280587895244   10.50802059904749
C         4.64577058659060    4.11084877621110   10.60373407866292
H         4.14005426583131    5.04262202747069   10.80794460632309
C         6.02717523422027    4.08722711811100   10.51914392308667
H         6.59175633603311    4.99846239720532   10.65817139060867
C         8.89281612972410    2.45068292076984   11.95998021015387
C         8.12874117848793    3.02395223969045   12.97259854143341
H         7.25612144867507    3.61160120128517   12.72768667877201
C         8.48844925224489    2.83606557525950   14.29473874561578
H         7.89394934747232    3.28139991793430   15.07789401530054
C         9.60562202136142    2.08168997194736   14.61706353560144
H         9.87915824466159    1.93704999601458   15.65083118781714
C        10.36879148401004    1.50993783983518   13.61232429458296
H        11.23737428463728    0.91837696815951   13.86171172348704
C        10.01194386264500    1.69384914743987   12.28907147032980
H        10.59506754668120    1.24716606372704   11.49458188965095
C         9.08846633226427    4.42751847518924    9.93668192080180
C        10.19265439244828    4.91259892711809   10.63139411745472
H        10.62419743786577    4.32519618818073   11.43059789773076
C        10.72863178136500    6.14670314929448   10.30742038240949
H        11.58142399228305    6.51987536520487   10.85433566145847
C        10.17402624245054    6.90163402908988    9.28726507557057
H        10.59657013244878    7.86146618722238    9.03443986236476
C         9.07319657866714    6.42515923505879    8.59285354900535
H         8.63641371215651    7.01418106544959    7.80051017117365
C         8.53628710570341    5.19159695033573    8.90974696875853
H         7.67484672242437    4.81582499008260    8.37154206833986
N        10.99011431606763    2.61474916071788    8.44555559730717
N        11.73474025570659    4.51113007873686    7.20436404143502
N         9.68626039878367    3.47717455683788    6.79600844371556
N         7.73585704154501    2.67210297503403    6.37619646950890
P         8.49571000702239    2.72324292763211   10.20095345923359
Ru        9.44074906537625    1.30344598412671    8.63678423382168

