105
CSD_code = ZAYNEU | q = 0 | S = 0 | Stoichiometry = C60H36N4S4Zn | MND = 4
C         5.40631873137087   -1.47815876657276    2.00395133174953
C         5.64670394307840   -1.59208487527834    3.41564935260650
H         6.43043972453528   -2.16992135233530    3.86438417759677
C         4.71856629998860   -0.82739605409698    4.03379685120185
H         4.59765825925451   -0.65897049267994    5.08564570747367
C         3.90518901501643   -0.24535846370968    3.00248571285063
C         2.83605646075309    0.61075605825860    3.26034307504320
C         2.06490710576364    1.23929894115940    2.28370664819574
C         0.96053695593805    2.12908506711107    2.54879849108269
C         0.56371991805060    2.63140254915259    1.33391141078703
C         1.37756706518819    1.98108440950002    0.33591561382733
C         6.17895333900142   -2.12527570475650    1.04143959673471
C         2.56646043634238    0.89706623783372    4.68869480532491
C         2.05112025869791   -0.08546578888041    5.52650878744925
H         1.82584960475279   -1.06149845090686    5.12105638127790
C         1.81480291336679    0.18855749808587    6.86114159847572
H         1.40409058153196   -0.57781521184151    7.50227375399133
C         2.10409789014627    1.44103096559187    7.37572946278441
H         1.91673350488617    1.65512688299281    8.41747794983821
C         2.63876874655939    2.41676628348611    6.55205686445259
H         2.87379424418394    3.39288399272931    6.95020314142416
C         2.87080483943183    2.14708489442812    5.21580772312900
H         3.28930708148742    2.90631828662748    4.57096892295164
C         0.32433164846138    2.46553884720226    3.80673178515622
C        -0.40109150684532    1.66312422141955    4.63507563813764
H        -0.54204455194287    0.61269901419978    4.45529870521438
C        -0.94877408069860    2.35289017012885    5.73691312028579
H        -1.54390435367088    1.88092323424714    6.49791101898662
C        -0.64500077884405    3.67419604210785    5.73013481881261
H        -0.92276905327445    4.42857239000227    6.43878341985338
C        -0.47715014900920    3.62782528906630    1.17618885517950
C        -0.36416081248143    4.92170257898713    0.76528746115519
H         0.56548797517950    5.35280989604110    0.44060093343686
C        -1.58300912622157    5.62999736129666    0.81883468945504
H        -1.68557122613381    6.65935839520328    0.52569519050817
C        -2.60818927271826    4.87261008527958    1.28058441483786
H        -3.63430150816626    5.14795409329942    1.42101159364078
C         7.27220997247047   -2.98054043702104    1.56044695162797
C         6.98725601940122   -4.18512730930601    2.19336099929797
H         5.95871768290879   -4.50352446176446    2.28558864059822
C         8.01045082356892   -4.97444092096436    2.68559659215600
H         7.78030285998589   -5.91446534071814    3.16569525893438
C         9.32655950189627   -4.56202883428708    2.56376410244784
H        10.12539481725751   -5.18019328360170    2.94580743401748
C         9.61535626826750   -3.35221504452782    1.95592671665072
H        10.63976145241705   -3.02166011664725    1.86706625909256
C         8.59436857488075   -2.56344871646470    1.45812002508457
H         8.81681620845494   -1.61788068954511    0.98507906118887
N         4.35218230739989   -0.64663259712430    1.78114164682801
N         2.27835507361418    1.15952837370906    0.94172753978843
S         0.30945579257054    4.11147178489402    4.37011540045922
S        -2.10758446071641    3.27620499889219    1.67226509913784
Zn        3.69957255330784    0.00004284156273    0.00000439628414
C         1.99276528959175    1.47813448713112   -2.00395299297660
C         1.75240426453003    1.59209035440059   -3.41565205665803
H         0.96865609851627    2.16991148490603   -3.86438752887106
C         2.68053741401828    0.82739644139403   -4.03379852547699
H         2.80143628072854    0.65895647202958   -5.08564463773869
C         3.49390738952845    0.24534825597589   -3.00248671739785
C         4.56303484777172   -0.61077025338972   -3.26034321636960
C         5.33418630657129   -1.23931203744942   -2.28370802575449
C         6.43856128102050   -2.12908909251908   -2.54879758639676
C         6.83537625413602   -2.63140839533107   -1.33391192023195
C         6.02151915503646   -1.98110533239269   -0.33591712863625
C         1.22012345651200    2.12524450684189   -1.04144113543593
C         4.83263977445027   -0.89706556553946   -4.68869750487397
C         5.34797115338703    0.08547147837110   -5.52651394882249
H         5.57324539346589    1.06150277289976   -5.12105942484536
C         5.58428861220199   -0.18855110010903   -6.86114946417241
H         5.99499972518003    0.57782212800480   -7.50228327076083
C         5.29500238429654   -1.44102768822135   -7.37573523456264
H         5.48236559013896   -1.65512383176149   -8.41748499342656
C         4.76033713874185   -2.41676475419921   -6.55206003426101
H         4.52531384285767   -3.39288399422578   -6.95020505067400
C         4.52830262988096   -2.14708496938782   -5.21580914528856
H         4.10979947139722   -2.90631673812569   -4.57096947818520
C         7.07476729304795   -2.46554023087785   -3.80673076076577
C         7.80018640056052   -1.66311904003285   -4.63507084077256
H         7.94114305027800   -0.61269719200419   -4.45527875352254
C         8.34788857809282   -2.35287953037267   -5.73690398504207
H         8.94302465330824   -1.88090545367565   -6.49789422449229
C         8.04409819184489   -3.67418275950003   -5.73014748907983
H         8.32186738021108   -4.42855376284174   -6.43880374993914
C         7.87624593460423   -3.62783236045744   -1.17619248432358
C         7.76325666790932   -4.92171074849208   -0.76528975181537
H         6.83360951857044   -5.35281552659905   -0.44059535250578
C         8.98210916745427   -5.63000067120373   -0.81882048062966
H         9.08467238799659   -6.65936153031695   -0.52567846666004
C        10.00728493118720   -4.87261506668205   -1.28058953235467
H        11.03339677049603   -5.14796389740712   -1.42102074878958
C         0.12688211742785    2.98052990836774   -1.56044333575196
C         0.41184787366410    4.18512002285666   -2.19334862948907
H         1.44038862920957    4.50350971265653   -2.28557504590390
C        -0.61133738179050    4.97443946666335   -2.68559222260297
H        -0.38118093907968    5.91446581408624   -3.16568181848600
C        -1.92744929960875    4.56203737408093   -2.56376258670419
H        -2.72627850946242    5.18020965529281   -2.94580373879913
C        -2.21625526695671    3.35221893475215   -1.95594098186519
H        -3.24066243294531    3.02167448746798   -1.86707246182300
C        -1.19527706943116    2.56344391304689   -1.45813316558698
H        -1.41773661131902    1.61788438084772   -0.98508026928973
N         3.04694481567583    0.64665765233282   -1.78114502943846
N         5.12076220806224   -1.15951093116666   -0.94172717854752
S         7.08967243201727   -4.11147331476666   -4.37011287825418
S         9.50667918437027   -3.27621270682153   -1.67226014343936

