61
CSD_code = ZAYPEW | q = 1 | S = 0 | Stoichiometry = C24H26CdN7O3(1+) | MND = 7
C        10.38444583163043    7.54060300476492   14.80094837204413
H        11.09640704180077    8.35411142286616   14.73987770246848
C        10.53115081262506    6.52947300347795   15.73254184815323
H        11.36561963942082    6.53283521336037   16.41392057738457
C         9.59103578969532    5.50913067591846   15.75353283207557
H         9.67567934110883    4.69613521022097   16.45755237623135
C         8.54734673804151    5.54727790202295   14.84619288681114
H         7.80214440642535    4.76756109422219   14.82387168426155
C         8.48491637559780    6.59691349751053   13.93623237072118
C         7.41671826598767    6.63516226660226   12.87415166234185
H         7.68204943268122    5.87820820345661   12.12730293998261
H         6.44375246704581    6.36344391059904   13.31165837259807
C         6.58218733535681    7.90503974973598   10.98135801369663
H         6.39951332076467    8.93788543433790   10.67068522080929
H         5.61562989413292    7.40169387489732   11.12805231108872
C         7.35224050542823    7.21993201452203    9.87966758701645
C         6.77453650323585    6.22584160132505    9.10013918804719
H         5.75607331919543    5.91677483741183    9.27860596482060
C         7.52668690002361    5.63308954028400    8.09956106739552
H         7.10651132262976    4.85181332346914    7.48535286507376
C         8.83163082402391    6.05971036917244    7.91360201515189
H         9.45735518376333    5.62283489531299    7.15247004043540
C         9.32188575073956    7.05938111293950    8.73719377590593
H        10.33985036262261    7.41014764798950    8.61864610701508
C         7.39494290728206   11.49708784459391   11.65528235982653
H         6.73346830894246   10.90766363904704   12.27723032427898
C         7.28293562041515   12.87777391535650   11.63398858008220
H         6.54183319103645   13.37750974574833   12.23625943878488
C         8.14381532991061   13.59144439103434   10.81619021737228
H         8.09319854959569   14.66807004333648   10.76469853970965
C         9.07242439352840   12.89159290295257   10.06410258352798
H         9.75678420834997   13.41378009549349    9.41356019444148
C         9.11058663107050   11.50497656131390   10.15632587111980
C        10.10318666758095   10.69600831141364    9.36251853375013
H         9.54704705194387   10.06310886001889    8.66441590583977
H        10.74926388758300   11.37616464084226    8.78719890886476
C        11.82200467378248   10.57124542948270   11.07789437060119
H        12.32977630595840   11.36677052180334   10.51316620394305
H        12.57296104644574    9.86213875402925   11.44306711132628
C        11.14939965128545   11.15901246665865   12.28972682763944
C        11.48602810755546   12.42485882818576   12.75893297211325
H        12.22046707564111   13.01896073860044   12.23765325290555
C        10.87094764516371   12.90640421919909   13.90114440101798
H        11.11433072572397   13.88508594517117   14.28501622858756
C         9.93818219732636   12.10416825560935   14.54133264470358
H         9.43805047907806   12.43736383976851   15.43613130255210
C         9.66471934357622   10.85792898940504   14.00461413296905
H         8.95014834137930   10.19421841903064   14.47464261609350
Cd        9.60973002672889    8.48641639672720   11.71000289751344
N        11.24764365508882    6.49064994431639   12.03713243316619
N         9.38477360705221    7.57771236003244   13.92215501003091
N         7.37650295926976    7.93053693534791   12.20445778304140
H         6.98812359464126    8.61408713077489   12.85026766099308
N         8.60421000477874    7.63316858317481    9.69499043969145
N         8.28087139877100   10.82029491305996   10.93951327065528
N        10.88152243838647    9.82977067390123   10.24294210187352
H        11.41456634564232    9.17380568832291    9.67809716903864
N        10.25344280941549   10.39635679641557   12.90907490278635
O        11.66574761616404    7.66287089279326   11.96242581635388
O        10.12229521269736    6.25209781525081   11.57135891235135
O        11.91150062723616    5.62849470535380   12.54177029891515

