91
CSD_code = ZAYVIH | q = 1 | S = 0 | Stoichiometry = C40H44IrN6(1+) | MND = 6
Ir       -2.29837605350740  -19.05457993258015   -5.58856859917438
N        -1.27300188923854  -21.67517847638713   -6.28504227840213
N        -3.20190984239744  -22.15153667121258   -5.46642456081734
N        -2.43192053520097  -16.58667348776525   -7.10445546045491
N        -1.57770066098495  -15.92636121478498   -5.24653383303386
N        -4.16555378638679  -18.71681441040891   -4.85779312288868
N        -1.46192641175147  -19.21495299123789   -3.74104806449627
C        -0.47375828005987  -19.45761203971395   -6.43590521019873
C         0.54479808250800  -18.58102470498163   -6.78736792776131
H         0.41930471257145  -17.51797536266857   -6.63230332285231
C         1.74570792585224  -19.01435862071411   -7.34237523522961
C         1.94080268771488  -20.37313476375168   -7.55627655267040
H         2.86667487998789  -20.72026503232919   -7.98935434774135
C         0.95824938576893  -21.28294470279507   -7.21847522467360
H         1.11962615065923  -22.33713389660457   -7.38425558551917
C        -0.22655115341157  -20.82138971073245   -6.66698997100367
C         2.80907955632728  -18.03240143621129   -7.72629981359484
H         2.64729918721204  -17.07039484006832   -7.24627935234737
H         2.80034728653492  -17.88009303351201   -8.80558151677258
H         3.79450151403079  -18.40354890021475   -7.45266818159516
C        -2.36495335195832  -21.11925555425376   -5.71001189006049
C        -1.39757358180119  -23.02372467578782   -6.40540606510669
H        -0.65246211467618  -23.65748353865898   -6.83601138429316
C        -4.44808619875451  -22.12075025215595   -4.90487293994061
H        -4.78561149007316  -21.13780487552384   -4.62722502774861
C        -5.17048529915771  -23.25658516768684   -4.73499325206408
C        -4.59080558288728  -24.49647536321100   -5.15353932789146
H        -5.14873077599494  -25.40816395655089   -5.02114360177014
C        -3.35663049598274  -24.54641176887791   -5.71395601521866
H        -2.91180756450856  -25.47397570171916   -6.03537465331887
C        -2.62696030713467  -23.35014305540152   -5.88731863513117
C        -6.55808250362854  -23.26247469692049   -4.12096133703938
C        -7.03837803478984  -21.85259497124348   -3.76452939972978
H        -6.38296454906429  -21.39057757038994   -3.02894675573256
H        -8.03645914904711  -21.91170647235132   -3.33678905505966
H        -7.08619978219757  -21.22577983717952   -4.65252840627590
C        -6.53070852186620  -24.10666230421589   -2.83961139166449
H        -5.82279889811390  -23.68997645356500   -2.12594869996990
H        -6.24358572924418  -25.13363509564885   -3.04532872749147
H        -7.51621775948830  -24.11714565039484   -2.38099171577731
C        -7.54768994174734  -23.86748934573353   -5.12603588848258
H        -7.54781900643462  -23.29322345029107   -6.05017176416875
H        -8.55238326062455  -23.85262145320365   -4.71113650120416
H        -7.29812967653328  -24.89717385604398   -5.36360161293983
C        -3.01238095096660  -18.84213256650207   -7.50024375621073
C        -3.54488655109262  -19.80127078161253   -8.35064494297326
H        -3.61326345626758  -20.83163896634316   -8.02882464627290
C        -4.00538429701246  -19.49495844452570   -9.62946964938482
C        -3.93484112065746  -18.18297212101618  -10.07724751490701
H        -4.28581136355731  -17.93264875574285  -11.06689818121496
C        -3.41735417987403  -17.19280903863688   -9.26390650637383
H        -3.36985071517130  -16.17455437988132   -9.61848504374167
C        -2.96568429761519  -17.52819951644708   -7.99796870152411
C        -4.54257221659945  -20.57625875184843  -10.51529893883608
H        -5.22047511845745  -20.16878810719797  -11.26102047596619
H        -5.06644392808473  -21.33246543850978   -9.93456022104381
H        -3.72092018569982  -21.06597869410384  -11.03877633003415
C        -2.06666488696493  -17.01810554070808   -5.87460424567857
C        -2.19129568696160  -15.25818260194367   -7.26519035545735
H        -2.40044004316616  -14.71642585080683   -8.16242075809277
C        -1.06329259772088  -15.83212244379031   -3.98334945117037
H        -1.05942777806187  -16.75788994254115   -3.43553967920803
C        -0.59916741012071  -14.65246576455115   -3.49983623690455
C        -0.66889316987228  -13.49987638961042   -4.34555789079972
H        -0.31025819029823  -12.55427255807749   -3.97512772466729
C        -1.17439689588050  -13.57447660334465   -5.60202053332790
H        -1.22851548165558  -12.71377530177648   -6.24843036270718
C        -1.64303824994874  -14.81517275230188   -6.08641278331041
C        -0.01157939904611  -14.51066800902836   -2.10805544371527
C        -0.85813841533928  -13.51118121698224   -1.30845678341659
H        -0.86284280739354  -12.53025108398596   -1.77442367875646
H        -0.45649303823623  -13.40534396160058   -0.30387682285109
H        -1.88632808418958  -13.85941697738969   -1.23357669367929
C         0.01156170558990  -15.84235473348782   -1.35207102886200
H         0.62159491022903  -16.57369040202771   -1.87803859787271
H        -0.99459157955014  -16.23572169401973   -1.22185433896969
H         0.44306277434807  -15.68702314986083   -0.36604456623488
C         1.43083652945359  -13.99947818105329   -2.22568476631158
H         2.03057054462422  -14.69015836052474   -2.81487336102948
H         1.87524895632273  -13.91386998430686   -1.23728411213314
H         1.47200661931856  -13.02268405143118   -2.69814175783551
C        -5.24402023602572  -18.36510997822877   -4.66672031357012
C        -6.58659784688598  -17.94208776848795   -4.42551857382971
H        -7.15502294567237  -17.99349457741699   -5.35438037756574
H        -6.59043777577432  -16.91458551504235   -4.06177590645887
H        -7.05546848795591  -18.58705178339746   -3.68208879069951
C        -0.81807993692346  -19.49034367772272   -2.82838774544615
C        -0.01896167502710  -19.81758266170784   -1.69083901846185
H        -0.26240060756482  -20.82212629785525   -1.34491428966988
H        -0.20369438159016  -19.10660039903862   -0.88523428497215
H         1.03526476803036  -19.78172492807137   -1.96639160888900

