59
CSD_code = ZAYVAY | q = 0 | S = 0 | Stoichiometry = C29H24CuIN3P | MND = 4
Cu        2.68373138853730   -1.41440169431418    0.87475590587944
I         1.79433897809137   -2.95114032375309    2.58565938686793
P         4.81977820837413   -1.81124455140172    0.35030689934682
N         2.57890437477712    0.58529517261319    1.13657704460746
N         1.96696974359495   -0.94993045491920   -0.92261777919724
N         1.30640966348013   -4.08849331302299   -2.60083942086029
C         2.86051471673280    1.31356929437180    2.20475593779884
H         3.20683307055175    0.76724236211914    3.07216479226093
C         2.72733264815564    2.68916434460097    2.22489933566706
H         2.96593765402460    3.24603798372131    3.11626905707932
C         2.27778114219563    3.33450627488536    1.07293662031795
H         2.16278473850007    4.40800115044797    1.05807361519125
C         1.98201673557283    2.58291194754884   -0.04290843713631
H         1.63118068019856    3.04160587008517   -0.95487373840004
C         2.13716281370290    1.19180222607829    0.01585850328853
C         1.88305432807455    0.32885918444893   -1.09784314615046
H         1.62685874308108    0.77454301324671   -2.05786326834363
C         1.88465512650768   -1.86079344427445   -1.95507061825573
C         2.39155599768024   -1.61684100596299   -3.23453621688847
H         2.85127166142193   -0.66543375123844   -3.46538661280356
C         2.34163831273685   -2.62856320306267   -4.17440566480673
H         2.73349626882510   -2.47504393731382   -5.16815522873747
C         1.79892656974156   -3.85113935313089   -3.80587032712242
H         1.76084061996237   -4.68087201160197   -4.49836177839720
C         1.34193568655881   -3.12981267337107   -1.70270001541026
H         0.91450793849940   -3.35774490921000   -0.73445744976079
C         5.32504530538119   -3.55368053171870    0.31243224321866
C         4.36776235124475   -4.47969536356336   -0.09388688804971
H         3.37688516011544   -4.13947978538107   -0.36624663942757
C         4.68112074972092   -5.82504913057066   -0.13615108606040
H         3.93448230754894   -6.53951934134021   -0.44757965505921
C         5.94635378836446   -6.24933554885763    0.23632607674437
H         6.19081043351384   -7.30089907866244    0.21283731165816
C         6.89750696595136   -5.32971652549014    0.64998477844808
H         7.88093717364966   -5.66491551606791    0.94603009588243
C         6.59303558458804   -3.98165933060495    0.69218953108176
H         7.33155952537065   -3.26367286421745    1.02171999338099
C         5.30897763335765   -1.16754330304449   -1.27098880291302
C         5.58607104957274   -1.99312803867221   -2.35596319816040
H         5.62817440184608   -3.06498504084085   -2.21853757888739
C         5.81194397671811   -1.43922869708082   -3.60333299755340
H         6.03670833428788   -2.08296830103203   -4.44112211650141
C         5.74452212437076   -0.06696670858436   -3.78249442249018
H         5.91799518862684    0.36049127037064   -4.75907892918159
C         5.44660229783622    0.75922084503257   -2.70865265797383
H         5.38535672352774    1.82938349200906   -2.84823683400733
C         5.22134121925241    0.21272270078468   -1.46071870532805
H         4.98421116412505    0.85073785346206   -0.61699821040234
C         5.98728001632568   -1.06516517509355    1.52256794224366
C         7.11174857254045   -0.33101248311831    1.16238096427133
H         7.35902959157467   -0.18948418634164    0.11888783416863
C         7.91757663845334    0.21188153770738    2.14769836030713
H         8.79319412325804    0.78000588834307    1.86804580701462
C         7.60941690884791    0.02672424353110    3.48575636939169
H         8.24382444980517    0.45487826985459    4.24771340677840
C         6.49033401068656   -0.70761257181891    3.84700261691618
H         6.24987230233766   -0.85511518419173    4.88929268617028
C         5.67781490313222   -1.24888058553215    2.86958774415670
H         4.79958721448622   -1.82191700689681    3.13846756413780

