67
CSD_code = ZAYVEC | q = 0 | S = 0 | Stoichiometry = C28H34Cl2NPPd | MND = 4
Pd        9.55962555978904    4.42177970001387   13.65464559241927
Cl        9.16083071517222    4.18774280165744   11.40148966506328
Cl        8.84235048359760    6.59755678675146   13.78157707832995
P        10.67624838123180    2.50485622769671   13.35224572339645
N         9.18727470069644    4.55958331648502   16.62561598904728
C         9.88458407437778    4.70392766201059   15.54024480312585
H        10.85637328692175    5.17503333724191   15.70947308939476
C         7.76734075459118    4.10808804471021   16.56526753631531
C         7.36699564078005    3.36319361661413   17.84708335044648
H         6.29546083271959    3.16595681819468   17.79930644716259
H         7.88579043435808    2.40118924501805   17.87450718992411
C         7.70035039725550    4.13428321099950   19.11021170451901
H         7.39436874744832    3.56369535074349   19.98867574897907
H         7.16947039483153    5.08524488765610   19.13670893889106
C         9.20159570816179    4.34573965213336   19.13303466436500
H         9.68728692875502    3.36756918302312   19.18397972137119
H         9.49216482307797    4.91018531548374   20.02059643595467
C         9.74305332404005    5.09332585695212   17.90522709085519
C         6.86290864059260    5.32271489141214   16.32301320418809
H         6.80003802767050    5.97488085016830   17.18665609417308
H         5.85923957558759    4.98144122376433   16.08298828732811
H         7.24571132128113    5.90026869098092   15.48156754476216
C         7.53653705008756    3.12472381093931   15.40545175465414
H         7.48836915161887    3.65168307121755   14.43366110223034
H         6.57691390839151    2.63431756240024   15.55445760859324
H         8.31217248211817    2.35522546198232   15.38401578079645
C         9.44355773650292    6.59566104204391   17.98715671221276
H        10.10920846862160    7.06317010080927   18.70882072737463
H         8.42254083969980    6.78987592114624   18.29807502003972
H         9.59721933403895    7.06136753247321   17.01590323793821
C        11.27016841268363    4.89616371140356   17.94573551385976
H        11.60398222638142    4.97633767369089   18.97769125008532
H        11.80400705893541    5.65384731634846   17.37864317763126
H        11.54675706433991    3.91074822544881   17.57488485745830
C         9.92509485936690    0.95560649231508   12.78476669996171
C         8.62900409676220    0.98062548715160   12.28231734981594
H         8.10518553447388    1.92661217590031   12.22157563108001
C         8.03661075185090   -0.18973541543255   11.84204536137780
H         7.03242075869895   -0.16797233636330   11.44598025277057
C         8.73201279810013   -1.38604869383529   11.90573149967972
H         8.27134699368585   -2.29912074771516   11.55819740218763
C        10.01931209486381   -1.41607825130330   12.41957677382329
H        10.55816046309201   -2.35078339653711   12.47532862054112
C        10.61705492628648   -0.25137655663578   12.86380194401372
H        11.61391303466048   -0.27611456038882   13.28410590138429
C        11.61660118465530    1.96642520757165   14.82459806075278
C        11.00593349207312    1.13736710103895   15.76282154413590
H        10.03389788136970    0.71343505799546   15.54517260445131
C        11.64061483071754    0.83776690072500   16.95337478766944
H        11.16057013059586    0.18856856505596   17.67153042875488
C        12.89186084983522    1.36850781354815   17.22602129564933
H        13.38744474887600    1.13591294090700   18.15680259374705
C        13.50388693291763    2.19885882279372   16.30117110819649
H        14.47885748491369    2.61397145157638   16.51058006419976
C        12.86823293277472    2.50273067034908   15.11035112916199
H        13.34657192030096    3.15519185676022   14.39233655291464
C        11.99145525344474    2.92661285227520   12.16659678845343
C        12.58570586336913    2.00795480231990   11.31166925105517
H        12.26552255248528    0.97603860314840   11.31518415937396
C        13.57097529701747    2.42396432817121   10.43193827523623
H        14.02331021418198    1.70947370049461    9.75965094625559
C        13.96776537586602    3.74966167379424   10.40317283022311
H        14.73127438745591    4.06990529049165    9.70972619266705
C        13.37208273239071    4.67188284120522   11.25041548315484
H        13.66881331028076    5.70985414711568   11.21471464439232
C        12.38401044466005    4.26611908873116   12.12671758640617
H        11.88349938166027    5.00240398730062   12.77101359365953

