130
CSD_code = ZAYWOO | q = 0 | S = 0 | Stoichiometry = C56H67O5SiY | MND = 6
Y        10.82165531627358    1.19394209113871    5.30832709276953
Si       12.97803340664242    3.95106612747536    5.69664500222636
O         9.61031452067931    2.73687033381211    4.89357633794696
O        10.31619924701390    0.58329262573385    2.94118730571506
O         8.59635697261876   -0.06743692279596    5.12302136675062
O        11.31365508440570   -0.72908334619553    5.62128944440483
O        10.51258506346834    1.04487868759225    7.88889505734450
C         8.69267880905071    3.06092949484036    4.02124427337108
C         8.93575969075237    3.09886538970227    2.62346486805210
C         7.92683696275152    3.43294049525239    1.73365382741540
H         8.17959358372301    3.44283179809598    0.68219018324666
C         6.63166662674248    3.72890958107835    2.14151422316657
C         6.39327055748128    3.72610930286608    3.50792023937210
H         5.42225323156094    3.99374677603266    3.89368157445995
C         7.38125736980544    3.42283583021812    4.43477830738298
C        10.27651668119402    2.83642549829330    2.06273662874289
C        10.92941828457912    1.61056689008251    2.21463077277540
C        12.18043490482708    1.39800928682832    1.64645307405863
H        12.66785697190971    0.44366213553851    1.78634254182327
C        12.79222817734309    2.40070434662353    0.91697510247361
H        13.76721534016625    2.23019481500906    0.48637728229367
C        12.14937661528681    3.61561741624392    0.74363141602454
H        12.61911900891372    4.40001142274084    0.16903153802970
C        10.90755121872294    3.82643051339918    1.31058547077550
H        10.40641694342619    4.77480844389546    1.18343333306355
C         9.93395930710191   -0.55437294021517    2.15849060051691
H        10.46882423484183   -0.52770734688572    1.20241181550856
H        10.23801573026206   -1.45074466136488    2.70884225769514
C         8.33489358080199   -0.73919413459989    6.31780210892833
C         8.94178821172124   -1.97233479821378    6.57845908713133
C         8.62123886231098   -2.62220708001228    7.76934274054593
H         9.08574695898584   -3.57537627786850    7.97827320711345
C         7.72778370543688   -2.07465665814985    8.67068249794993
H         7.49218665031187   -2.60130564358999    9.58423463282370
C         7.13631746113999   -0.85108164142673    8.40057474024072
H         6.43364444922476   -0.41545439230505    9.09591985171722
C         7.44002676608913   -0.18712776198208    7.22587439080117
H         6.98309478202927    0.76620854986541    6.99935291178152
C         9.85794680101023   -2.60562899937982    5.61393722085843
C        11.00622570535848   -1.91145187205312    5.16031750343601
C        11.82446841160022   -2.59150812526784    4.21482248100477
C        11.49157966194329   -3.87021931283656    3.79493749340224
H        12.15600998827098   -4.35168160711683    3.09200668379617
C        10.37337236998362   -4.55391684894005    4.26092618839046
C         9.57179921173348   -3.89295535560281    5.17907137772441
H         8.68129821407693   -4.35918084687083    5.57231235846825
C         5.56625500835671    4.04212666817435    1.10295118811710
C         7.05031875200086    3.47972973852002    5.86617582784013
C         7.89682029388913    4.12250006556248    6.76691742057831
H         8.80861565978112    4.57040128571186    6.40239463753554
C         7.56271680237874    4.20949641290205    8.10607327622848
H         8.22228113734323    4.72280776171887    8.79160247677989
C         6.38329519788156    3.65105376935601    8.57278240998851
H         6.12540510280295    3.71987578358062    9.61976036345438
C         5.53472901074750    3.00805373437524    7.68706939782336
H         4.61278619486115    2.56899216941355    8.04264286417364
C         5.86445061635648    2.92395671139526    6.34612248294121
H         5.20024297001632    2.41449055430821    5.66084079300127
C        10.08007120913115   -5.95656877056646    3.75169262198504
C         9.89370687881421   -5.90827541689820    2.22822144951292
H        10.79261127350152   -5.55171739230827    1.73294580834165
H         9.07390041287651   -5.24020197287806    1.97041568186768
H         9.66455294905716   -6.90046767622205    1.84441590218151
C        13.01173020945315   -1.93290216541570    3.64842523211513
C        13.88037412380852   -1.18884771686801    4.44535797182275
H        13.69371114651769   -1.11710968170186    5.50616225144844
C        14.99297333811714   -0.57675990884676    3.89615527350204
H        15.65645136763025   -0.00435740306011    4.52824211145106
C        15.26567117858421   -0.70059370193431    2.54431839168572
H        16.13542913310593   -0.22297213973575    2.11726430589541
C        14.41555286774870   -1.44450816635899    1.74212191040922
H        14.62007496914383   -1.54708591746253    0.68515036311474
C        13.29784610857518   -2.04974245129414    2.28710272956723
H        12.62931755067595   -2.60949503380535    1.64702766706818
C        11.49610738893934    0.28340514271005    8.58372703354992
H        12.31054443564190    0.94607880337055    8.91236686030060
H        11.88250174954312   -0.46640229360621    7.89266820847144
C        10.76087560976991   -0.31022786917625    9.78614671091307
H        10.27332028303796   -1.24055918512335    9.49757932634254
H        11.43450038466867   -0.50738830446598   10.61685823423526
C         9.71238697925653    0.76268515933760   10.11304801310871
H         9.95164269962597    1.29552059127298   11.03156444378770
H         8.72400314887309    0.32090101381724   10.21751932766658
C         9.76805657287747    1.71242587787790    8.90359527728483
H         8.78556190752498    1.94995340466539    8.49460597031240
H        10.27878886373849    2.64560445105834    9.17606312451388
C        12.91960785199601    2.11849030873994    5.26189232740818
H        13.56376439371132    1.56707699637911    5.95692164800763
H        13.35294390039009    1.97394752039627    4.26414439657572
C        12.18699909009752    5.02834771044825    4.33155975165319
H        12.70177991085689    4.90314680731775    3.38413879271351
H        12.21022811847419    6.08402839128265    4.58441501461300
H        11.15113081466061    4.74292343557578    4.18237555010163
C        12.01728929359528    4.24910944659690    7.32971280829296
H        11.00600672344111    3.86075114747492    7.22961410453181
H        11.94920744103532    5.30462375136206    7.57613052908171
H        12.49337290764604    3.74853598144322    8.16867285217842
C        14.75780928660153    4.61733668368389    5.97680473302298
H        15.26226270945209    4.07410819405840    6.76944756734704
H        14.75639539325485    5.66767049826708    6.24960988922715
H        15.35691275414764    4.51344364628488    5.07820424448910
C        11.25758062144121   -6.87751367821544    4.09981503804611
H        11.06150663896483   -7.88930748661545    3.75004938576458
H        11.40484893708135   -6.90635757392265    5.17741267430621
H        12.17921071524020   -6.53072971000757    3.64094733721060
C         8.81139314163582   -6.55232758268122    4.36804806444007
H         7.93793778086479   -5.95130135174816    4.12505080752600
H         8.90139668955568   -6.62806938546996    5.44915179887763
H         8.65095922549647   -7.55375352055983    3.97304366575428
C         5.99859716960200    5.26744136993540    0.28604341480447
H         6.93170731439750    5.08229317221963   -0.23883410804593
H         6.14063674613008    6.12333115105430    0.94243459404839
H         5.23720509523888    5.51822690936665   -0.45005930453042
C         4.20398655147074    4.34465110826705    1.73244058566850
H         3.47912731453705    4.55452950480172    0.94806681701974
H         4.25903363579694    5.21553176589175    2.38121457385068
H         3.84152842344742    3.49527329129922    2.30705149853937
C         5.40517488827523    2.83039032266491    0.17316702560326
H         5.11252575350812    1.95266952450301    0.74664615708772
H         6.33356578928815    2.60497065131335   -0.34475281785649
H         4.63795097208339    3.02682677749298   -0.57314565251884
C         7.47956463424336   -0.03512611334574    4.22724262054467
H         6.56217361089978   -0.22348741617775    4.79682947811579
H         7.42538626508701    0.97158647603965    3.80284931384122
C         8.42535530444056   -0.59373390000724    1.90133702416552
H         8.25112204429965   -1.28103216631819    1.07052619646435
H         8.08918874147672    0.40032637002912    1.59593490805198
C         7.60024265984021   -1.06788193793734    3.10040857426880
H         6.59117943770209   -1.29568393482246    2.74992419290732
H         8.03385016848705   -1.98599036636299    3.50473817231083

