99
CSD_code = ZAYYUT | q = 0 | S = 0 | Stoichiometry = C36H47FeO12P3 | MND = 6
Fe        3.32535019537730    0.76327512271030    4.06504949280751
P         6.10306849894761    0.85443703562701    2.65584208391539
P         1.49025037549068    2.65061116122898    2.36947923925015
P         4.31517362844050    2.33860802237632    6.43790981471806
O         3.38752226690965   -0.64294523590207    2.76818381138241
O         5.25181742912700    1.19201417204825    3.84287512976740
O         6.57403551637574    2.17810911172248    1.88221778253717
O         7.52269061974200    0.33703171836888    3.17190991941410
O         1.50662745199061    0.40642662104327    4.47603818717454
O         2.85981644053875    2.08419910138274    2.58133828750907
O         0.98036146498274    2.38583139657803    0.88264382475254
O         1.58936730860159    4.25762786071508    2.35566003498460
O         3.81516919673418   -0.50923595130900    5.43918547796249
O         3.28850316387478    2.28738994215678    5.34206915412931
O         3.57098636370771    3.08103270645582    7.67433352636154
O         5.50331970346913    3.35622146511754    6.16482283970009
C         4.17762311667217   -0.86991789289233    1.80500710251862
C         5.38537215151176   -0.29135895790451    1.49273377660796
C         7.79465168117464    0.14758919958019    4.55942193399771
C         8.28230813490795    1.42932345108674    5.21076146027432
C         5.69947528654462    2.78365066733408    0.93451026037514
C         6.33889624646126    4.07516615665024    0.45323478883861
C         6.10084551181323   -0.55845356708629    0.25451970433164
C         7.46430019989933   -0.26542226335435    0.15122538447381
C         8.15494538036113   -0.48017444121788   -1.02539662204579
C         7.50927330128918   -0.99886259632131   -2.13581615143948
C         6.15825209534622   -1.29267806986554   -2.05237361887355
C         5.46063107216461   -1.06972277466464   -0.88131155296406
C         0.43189510121808    1.02977020080545    4.28177479709599
C         0.19413896577125    2.12274293355144    3.46856807906010
C         2.02863687411780    4.93967775951323    3.52796783448473
C         0.85950089082503    5.57103587631782    4.26801428857744
C         1.87600289886353    2.50482150704071   -0.22400929809906
C         2.47429111211943    1.15646170713841   -0.58191026235036
C        -1.06252772768353    2.82811196625467    3.47544951116086
C        -1.87367833119447    2.90994432115837    4.61414067523782
C        -3.08655955231943    3.56800460506597    4.60426818382318
C        -3.50329198879330    4.25972690893728    3.46534982967004
C        -2.70672767180903    4.11848495024948    2.37017666682314
C        -1.55100249604431    3.42786391499273    2.28783444486030
C         4.61586103615278   -0.34241430180815    6.40356037342527
C         5.06349900967740    0.82226909965840    6.98189692623946
C         5.26460448108927    4.64309473421563    5.60159414620502
C         5.53596454535547    4.62571887328166    4.10712777361174
C         2.38606114074434    2.49415874587195    8.19890872349938
C         1.13970216558226    2.99835649848143    7.48746297898754
C         6.10073547590662    0.85948799240254    8.00074744312009
C         6.98200935782033   -0.21292471411094    8.18995508612125
C         7.96679724959741   -0.16919871742712    9.15735530942183
C         8.11825516211403    0.94949393280314    9.95956543132045
C         7.26738645296504    2.02639240650472    9.77480246683593
C         6.27600332970231    1.98264552337677    8.81406386348460
H         3.82842395629185   -1.65433155814527    1.11706623566582
H         8.56486796820787   -0.62900107665127    4.59073266737802
H         6.89275635087203   -0.20509789805373    5.06531219207587
H         4.72760125492597    2.97070669339234    1.40146544607287
H         5.55362017237663    2.09596250752956    0.09365939303492
H         8.59300253433364    1.22511526745307    6.23228936562152
H         9.12016418846867    1.83728641402069    4.65053075504062
H         7.47329083766175    2.15403644372662    5.23029471159376
H         5.70251504640650    4.54554598926042   -0.29143697693648
H         6.48131719461334    4.75760916466996    1.28579076784734
H         7.30734619738597    3.86046558884407    0.00958920916510
H         7.98145046276799    0.12505112470465    1.01232346002493
H         9.20851105201776   -0.24528329478716   -1.07617834501989
H         8.04992304826900   -1.16943054607943   -3.05479374176981
H         5.63980110874006   -1.69160939974787   -2.91274349671770
H         4.40337026345779   -1.28286797188452   -0.85367966696452
H        -0.43231295884467    0.66666376657957    4.85935124355715
H         2.71899269661596    5.71548859876689    3.18186733182755
H         2.56292362999067    4.24107286322650    4.17682369459343
H         2.66428975535836    3.22367604900042    0.01438749812097
H         1.27050270376173    2.89794927516971   -1.04688771258972
H         1.23528033386687    6.18454462357050    5.08279447987916
H         0.28297008505515    6.19484099262308    3.58938475158577
H         0.20344788111924    4.80559222648006    4.67225628690954
H         3.14564134814847    1.25966687296683   -1.43084104156018
H         3.02525646024148    0.77032368200618    0.27151395634988
H         1.68244473976078    0.45529525463392   -0.83279332870183
H        -1.52124424586254    2.47486090612797    5.53738579538714
H        -3.68842661887097    3.61283478443579    5.50043990160983
H        -4.39347819958792    4.86736336448021    3.47480187288898
H        -1.00838053261703    3.28979209227122    1.37028214572161
H         4.98249447094581   -1.27885925746326    6.85000665193082
H         5.94910050556296    5.32459261070837    6.11812328255853
H         4.23496602128781    4.95216941469094    5.80592731216285
H         2.36863168089834    2.77261210416105    9.25790100032296
H         2.44930807958619    1.40406959794988    8.11506725161596
H         5.34693328382219    5.60907674200279    3.68235672521926
H         6.56883688455768    4.34194147539191    3.92160946144388
H         4.89320539988016    3.88715376877600    3.63618288379415
H         0.25646361061415    2.57547529565002    7.95929350021304
H         1.08932245760440    4.08321257453599    7.54353616354036
H         1.17306616152639    2.69666044403760    6.44413888110551
H         6.91007920662188   -1.08745945788537    7.56229269825577
H         8.62991923203325   -1.01385751959042    9.27958802459951
H         8.89160140278563    0.98310028135985   10.71235075240816
H         7.37576819849896    2.90897739213598   10.38906691050558
H         5.62244340460978    2.82961184700568    8.69132930355275

