45
CSD_code = ZAZCIO | q = 0 | S = 0 | Stoichiometry = C18H20N2NiO4 | MND = 6
Ni        8.75292843901266    3.58482119181701    5.80356175315351
O         7.52695054208484    2.02664598716129    5.91500997607948
O        10.75759855289706    4.89065539890386    6.53832982468658
O         8.60912642652307    5.41127288200054    4.85759859924845
C         7.28061554753624    3.74006414211904    8.20849549722969
H         7.05977203392455    4.27755357972304    9.13585429420888
O        10.37649073142984    2.07861577992281    6.77412389944479
N         8.13701762488132    4.26632564259438    7.40060937810746
C         5.99641957054072    0.51212547795824    6.80475573662660
H         6.12303026603569   -0.09794674149195    5.92252291114298
C         8.32742193753216    5.51618085733741    3.61213430687194
N         9.48222577960347    2.86821974996586    4.23523932313092
C         7.80637558240928    6.73810878773732    3.11287202074029
H         7.64014052586908    7.53447421861366    3.82383321240259
C         8.55986314886305    4.47368471043287    2.66013388676751
C         8.23922603496745    4.68229336045103    1.30794857543734
H         8.41623204571092    3.87753533355939    0.60688825643253
C         7.49386112558238    6.89955507316478    1.79075682703767
H         7.07855239425451    7.83756395544776    1.44949407837310
C         9.20695786105352    3.26480579965836    3.04076714901635
H         9.55810937952430    2.65207513278903    2.20380191352805
C         6.74667285845417    1.71956978579656    6.87400848482451
C         7.70534807533718    5.86631127368739    0.87229425656229
H         7.45463268943196    6.00739589126746   -0.16787720970212
C         6.56788083672971    2.52480286188586    8.04308721752853
C         8.75186824807196    5.52440787912180    7.76751818839333
H         8.41106616226214    5.86359441961070    8.75435163267900
H         8.47703226574250    6.27230415780497    7.01449092506270
C         5.14083521714313    0.14077602052394    7.80304522453021
H         4.58390582213665   -0.78187405631735    7.71624608583560
C        10.27963525184617    5.37602810595968    7.77323081780997
H        10.74165128865005    6.34466754047972    8.01037318624533
H        10.58080485214723    4.64044510231906    8.52445849006713
C        10.37991986149146    1.72983559280042    4.35975070455098
H        11.40225202399290    2.09325160370204    4.17461799964659
H        10.14765336672305    0.96330668062148    3.61026088314330
C         5.67858116521910    2.10667003699406    9.05025127903936
H         5.55882225384711    2.73260914230161    9.92467025546508
C         4.97473350422583    0.93824114448117    8.94244628721695
H         4.29694831796338    0.62918726740958    9.72347678757256
C        10.32881337970911    1.10219987930731    5.75609737930506
H         9.38033284953864    0.58143162393247    5.89549291555158
H        11.15840172219253    0.38893761928337    5.86592141776475
H        11.17580559454930    2.61322421426599    6.66377037678208
H        10.42698684235878    5.48534589289534    5.84288499445755

