44
CSD_code = ZAZDIN | q = 0 | S = 0 | Stoichiometry = C11H27N5Ti | MND = 5
Ti        0.93569724377992    1.85657791306473    2.36802513238470
N        -0.57110001479272    0.56405180447163    3.27845622596480
C        -1.70438311740518    1.40801873217348    3.62470515911677
C        -1.94815689889634    2.39985722513781    2.48363943328186
N        -0.69573171267911    2.69630198742254    1.84588863649905
C         0.02840983157820   -0.04408117014534    4.45589224899779
C         0.92576747687179    0.99769775408441    5.13570629895337
N         1.65006585613159    1.71888316445051    4.12164112542028
C        -0.88029493537303   -0.38208251199936    2.21324206752320
C         0.42532600472617   -0.85829632181624    1.55680483243972
N         1.34496154024228    0.24515803752304    1.43449071454785
C        -0.90934107030361    3.57638979614197    0.72718257533474
C         2.82293991031024    2.35423371277523    4.66442029320386
C         2.71626790960942   -0.19910549211764    1.50023898705961
N         2.07006369665624    3.09493208199818    1.58755683994570
C         2.12845416812539    4.42713460655112    2.13470278165520
C         2.73374630499285    3.02969670091321    0.31139218879007
H        -2.60780772781106    0.80716128822407    3.83267402402542
H        -1.44333108939744    1.96664360876718    4.52848641251184
H        -2.43006062684887    3.31582999359076    2.89102950675851
H        -2.67993191375440    1.97778098177607    1.75633339140257
H        -0.73764390453484   -0.43281999512761    5.14962198803561
H         0.65941264106183   -0.87536156936499    4.13452829444241
H         1.62045813494268    0.46992481898280    5.81989091520552
H         0.31774866281827    1.67359419684534    5.78157787113007
H        -1.46707529880000   -1.23971848590387    2.58768574105476
H        -1.46727078687433    0.14628430651708    1.45884340124287
H         0.18383038904070   -1.31009130914670    0.57337636111038
H         0.86829900632070   -1.67302435585590    2.16809894787637
H         0.02163741293670    3.73284264410490    0.18551522255174
H        -1.30652566750398    4.55923088663599    1.04930048321471
H        -1.64916937255831    3.15195111532929    0.02020840109087
H         3.42822994125393    2.76908854118158    3.85735486293341
H         3.44508288119478    1.62733198614481    5.22026022621499
H         2.57128530164203    3.16760295817742    5.37550963140651
H         3.38194537331508    0.66477852437898    1.57111641037480
H         2.99337218779810   -0.78596717225096    0.60435081097066
H         2.89970005579631   -0.84907001512379    2.38028327389190
H         1.55166485210843    4.46851736814533    3.06635061477671
H         1.71219958890447    5.17378591309174    1.43268947468946
H         3.16903115568181    4.73905918641044    2.34525569682810
H         2.51611405375564    2.07262031119132   -0.17122124472123
H         3.83091805600948    3.14030904400924    0.41375390703056
H         2.39919449992816    3.84154720863928   -0.36216016716709

