55
CSD_code = ZAZKAM | q = 0 | S = 0 | Stoichiometry = C28H22N2NiS2 | MND = 4
Ni        8.37518151995268    1.17630930058246    6.02665625896277
S         9.34935357970617    3.08370062760374    6.24988053431772
S         6.66528574828728    1.95307049644284    7.10255765857303
N        10.07091969512536    0.19300104162183    5.99844845684398
N         7.29173632114392   -0.09425015606413    5.05606955137122
C        11.02859539039398    3.03511804195639    5.89535066874712
C        11.65630282783478    4.28445619239217    5.74401571656002
C        12.99947792422898    4.38611812349986    5.49263825156378
C        13.78782182233641    3.23538852857010    5.39845748007374
C        13.20424538760343    2.00686706021735    5.55808206589533
C        11.82243301772610    1.86866015417947    5.79717996844355
C        11.31048946314026    0.55148252110551    5.96368023336733
C         9.81374974408377   -1.17150784101394    6.28178852053752
C        10.10716304139786   -1.68317668992862    7.53988125072804
C         9.83127214311265   -3.00975835368568    7.81916619118104
C         9.27742025449711   -3.82272065349934    6.84919048666469
C         9.00167870693514   -3.33496911774826    5.57532882137593
C         8.39540906991524   -4.24458506581006    4.54910213206655
C         9.29512949729545   -2.00635408971008    5.28375181882729
C         9.03493767656019   -1.39792686228748    3.95844254726537
C         9.77943291061183   -1.70167417176616    2.82290974966339
C        10.91766149130279   -2.67608106016338    2.87322279911011
C         9.45528235915222   -1.08235354058824    1.61941196407081
C         8.41544952714808   -0.17604921419317    1.54046166713011
C         7.68689422093329    0.14696130452901    2.67146093333523
C         8.01416439146764   -0.44143885256598    3.88705645946946
C         6.07838602783778   -0.52032736662886    5.15093708922924
C         5.13942648450727   -0.19230244798182    6.16927815153746
C         3.95194393894976   -0.94588589246241    6.24058867718552
C         2.98602130008021   -0.67754033395089    7.17404869097446
C         3.17046467046298    0.38297252783690    8.06580986709478
C         4.30750372671229    1.14603726578545    8.00749967384415
C         5.32400581457042    0.87958808428837    7.07342299199789
H        11.04225866561269    5.16795555569767    5.82785301082483
H        13.45297210896373    5.35886163363144    5.37271855874851
H        14.84672364241142    3.31813164020086    5.20704353897057
H        13.80348927752615    1.10946583752742    5.48960928540317
H        12.06727885006516   -0.23178767222340    6.06448469282113
H        10.52056981423138   -1.02968401668311    8.29426582663656
H        10.04539744316313   -3.40556767314299    8.80042071674909
H         9.05155743189910   -4.85441492700772    7.07584987289602
H         8.02223040447576   -3.68387779299165    3.69599214556437
H         7.57459359829871   -4.80832428558604    4.98887933432369
H         9.13644085818227   -4.96062886432459    4.19407888061589
H        11.20651535466707   -2.89149784375224    3.89870451551748
H        11.77707425096620   -2.27319433914935    2.34037607858614
H        10.63646587523302   -3.61162880275714    2.38992904521006
H        10.03047425447887   -1.31954395594348    0.73640874495851
H         8.17171059390110    0.28804765806505    0.59678368355530
H         6.88413467003096    0.86880286597751    2.63061022657058
H         5.71508185132616   -1.20217359026836    4.37731349561631
H         3.82072769210482   -1.76117018675827    5.54265677448324
H         2.08740829632273   -1.27347865292517    7.21936761061128
H         2.41081108834397    0.60450320977177    8.80073412270463
H         4.45324428277513    1.97177464208290    8.68684251062307

