103
CSD_code = ZAZLIX | q = 0 | S = 0 | Stoichiometry = C52H34F6N6OsP2S2 | MND = 6
Os        0.00009510761226   11.93079981049653    4.44473365629873
S         3.35162322851283    8.78843499635224    3.94123572106411
P         1.37066702916287   13.61415034222430    5.17652033525342
N         1.45822597923157   10.31565230240983    4.84429673826721
N         1.00804463948940   11.79838731195302    2.70855855199142
N         0.91611446591233   12.46775197010726    1.59418481384927
C         1.76417461255513    9.47030694738837    5.87553069068882
C         1.19170163446463    9.45553211421964    7.14726098936853
H         0.43053551020496   10.17349505068978    7.40079176624315
C         1.63467238744547    8.53301538253156    8.07027309237938
H         1.19603038451262    8.52212572618881    9.05623323775540
C         2.63906667284089    7.62070856057403    7.75524268725926
H         2.96664521480441    6.90812370716219    8.49633681810232
C         3.22674139899681    7.62082965323801    6.50491596111597
H         4.00976040845794    6.92389227000692    6.25137524343491
C         2.78631512373285    8.54672230228172    5.57574121151118
C         2.19762343227251   10.08142016601813    3.77912337619055
C         2.00308892656491   10.86855263421667    2.61979772926188
C         2.57543203046120   10.96020216189701    1.34471489659504
H         3.37904475303287   10.38732410556653    0.93184174977687
C         1.85010530068417   11.98410841825766    0.74999577053090
C         1.98527764251424   12.54058404102514   -0.61542848410346
C         0.62446284936260   15.22552183528587    4.75404770148381
C         1.25886275130655   16.43177885602104    5.03510825912748
H         2.24104623625662   16.42477593092457    5.48857877045381
C         0.63086236887182   17.62704391977508    4.73378890259314
H         1.12208186519920   18.56339399942835    4.95309490061958
C         2.99698280418771   13.79241801638723    4.36932491987159
C         4.20397201442174   13.43069106920423    4.95578533334814
H         4.23411605426793   13.11930157392356    5.98991251291959
C         5.37426542481185   13.48582612415487    4.21765323914371
H         6.31016913353377   13.20464720528524    4.67855897136318
C         5.34867463736698   13.89262867840267    2.89440969329776
H         6.26272062225777   13.92122090833146    2.32025372507476
C         4.14899294687045   14.26614484173805    2.30843695108729
H         4.12309238567281   14.58853161332444    1.27822695002353
C         2.97923264006009   14.21868669155648    3.04087658517941
H         2.03885557737198   14.49833396426847    2.58413583011796
C         1.68188796824036   13.70592838907566    6.96380747941904
C         1.19483203001363   14.72072864652947    7.77883505247151
H         0.67067465703038   15.56123993020191    7.34921238257130
C         1.35854717649159   14.64268472782705    9.15009687742932
H         0.96800553951671   15.42838185990315    9.77947593624974
C         1.99433098304090   13.55297516053712    9.72000822338200
H         2.10162781336799   13.48892346329443   10.79215423680266
C         2.46859613613456   12.53103590607422    8.91387992514947
H         2.94673292292257   11.66796652448694    9.35454715468621
C         2.30684146738060   12.60428507377733    7.54434052706579
H         2.63950348626921   11.78973124892841    6.91529493609567
F         3.11713712764100   12.13681206501838   -1.22174280894329
F         0.97850825784697   12.17685404273454   -1.43990100182736
F         2.00748203483289   13.88610537736828   -0.64006180642275
S        -3.35293016542825    8.79024626023518    4.94986659180399
P        -1.37051062315265   13.61415722101109    3.71242323759837
N        -1.45896232501909   10.31623887984253    4.04588216135780
N        -1.00820642997047   11.80006107919791    6.18062847723574
N        -0.91590093630215   12.47010468029314    7.29452591878416
C        -1.76544812663214    9.47056803417395    3.01506826942857
C        -1.19296313138913    9.45471771885066    1.74334297145840
H        -0.43120329147750   10.17195094766072    1.48951174921699
C        -1.63657483317514    8.53204834623071    0.82077888185616
H        -1.19793435441757    8.52037601080438   -0.16517767929700
C        -2.64161073499908    7.62059341675652    1.13622320486076
H        -2.96977434089959    6.90792726512380    0.39545905151430
C        -3.22917706359540    7.62163683460310    2.38660642437909
H        -4.01264425550715    6.92531849415903    2.64049702110143
C        -2.78806665570055    8.54765347157689    3.31533915076329
C        -2.19823699390283   10.08271283719640    5.11128712290755
C        -2.00322048830787   10.87025006278089    6.27024859495126
C        -2.57499984216104   10.96256366546226    7.54555496370148
H        -3.37845080197230   10.38992703790118    7.95909087341343
C        -1.84947196130451   11.98683876084314    8.13936385776962
C        -1.98418211251036   12.54405542306694    9.50440844503080
C        -0.62541645926867   15.22550737353232    4.13694598023248
C        -1.26037083741317   16.43173663021976    3.85700962011279
H        -2.24249439317554   16.42470144369114    3.40340921138617
C        -0.63297093510509   17.62701318399714    4.15954248163321
H        -1.12463306792720   18.56334020910729    3.94113162711797
C        -2.99789455738355   13.79093713917766    4.51785444379173
C        -4.20378741764098   13.42763902740925    3.93009508585552
H        -4.23239821989890   13.11624392757905    2.89593081482476
C        -5.37494681233288   13.48116846759219    4.66696283463086
H        -6.30996949767842   13.19871005348829    4.20505586402239
C        -5.35132868388622   13.88793046468021    5.99025215086130
H        -6.26601988627486   13.91522047901171    6.56344494815993
C        -4.15278010256607   14.26303851795797    6.57751581605888
H        -4.12843919406607   14.58543555946445    7.60776664357664
C        -2.98216455264650   14.21717785293464    5.84633759753534
H        -2.04268107739935   14.49813881654420    6.30409476468277
C        -1.67973434816165   13.70746150317065    1.92483822574186
C        -1.19246991022306   14.72342686702703    1.11138598640810
H        -0.66953455657641   15.56396455139232    1.54246111075650
C        -1.35443929318278   14.64657082592054   -0.26015753935094
H        -0.96371312585801   15.43316407439560   -0.88830674736656
C        -1.98876501789808   13.55696948391550   -0.83187933700803
H        -2.09475432139240   13.49387692725601   -1.90421404395937
C        -2.46322251549943   12.53388622952086   -0.02730949451516
H        -2.94020506177001   11.67091196514972   -0.46940387951267
C        -2.30311589280868   12.60588941307960    1.34247840926618
H        -2.63573220582572   11.79038666611721    1.97031186874477
F        -3.11564798228899   12.14044160479176   10.11144334192818
F        -0.97722920539866   12.18122108271748   10.32894958600077
F        -2.00675519663368   13.88952559280017    9.52840642587958

