87
CSD_code = ZAZNOF | q = 0 | S = 0 | Stoichiometry = C46H34N4NiO2 | MND = 4
C        10.22138556931008    4.31045471464653    1.92850716372898
C        10.52705631427536    5.45412728378884    0.96784616190296
C        11.45833736581600    6.30006076517464    1.87732210004308
C        10.83033213013233    5.99572471150622    3.22420007119893
C        10.76437461862574    6.90211328322471    4.24636806135317
C         9.98142897377691    6.64311367992227    5.38742611601514
C         9.55219076698996    7.65770082130082    6.29964956344449
H         9.82271440374695    8.69318140349024    6.23590441806441
C         8.73410844701501    7.05632229740155    7.19740650364864
H         8.19956807643432    7.50452975074555    8.01162918514080
C         8.72938129596310    5.66112480171326    6.87969686187143
C         8.18122536050379    4.66906171227754    7.67586406733412
C         8.43644592781130    3.31673095959159    7.42762699370384
C         8.17531981240752    2.28036088905285    8.37395279605392
H         7.68219479071059    2.41935958293101    9.31615258685664
C         8.70399031924574    1.14033852567860    7.86190084794987
H         8.70328246210716    0.15658347135256    8.28916577044575
C         9.24402016386700    1.47526055002688    6.58375579724477
C         9.71588426564524    0.52451428618102    5.67520036039519
C         9.94039006718556    0.84876718795413    4.34678812075579
C        10.16279528987940   -0.09989036262535    3.30052670730734
H        10.30154850974498   -1.15347227518257    3.44255921540432
C        10.12973483777768    0.59084499867467    2.13424286895773
H        10.23232791075585    0.21064454148045    1.13678451338048
C         9.96762526365689    1.96933054268419    2.47602657564189
C        10.01310187516947    3.01611741025634    1.53465384030421
C         9.22885033828613    6.21350259862326    0.66361612012880
H         9.45655002953195    7.12746873173973    0.11952959218879
H         8.72255868693915    6.47684711542369    1.58852712468242
H         8.57176441105110    5.59188846583620    0.05867324088363
C        12.89036995072567    5.74855578387600    1.84650627247280
H        13.26760005198985    5.77051028816818    0.82648261859641
H        12.91000832143508    4.72190548920419    2.20301067996353
H        13.52003235360607    6.36674375590343    2.48122805300230
C        11.45115661340249    8.21220069545461    4.16474003443258
C        10.75588761936822    9.37156445518631    3.84337238138834
H         9.70330398896948    9.31068819431469    3.61002124008632
C        11.41077588477544   10.58831930958965    3.80378057677041
H        10.86448400053059   11.48463744362878    3.54715399624981
C        12.76349283034688   10.66185512132557    4.09189339449475
H        13.27375700971180   11.61363350429769    4.06070819192868
C        13.45907686721313    9.51196953857141    4.42188002093741
H        14.51372953243720    9.56413371302829    4.65215522407664
C        12.80555455982724    8.29297440661337    4.46122603632584
H        13.34393873740948    7.39582656968017    4.73331488921386
C         7.39383842890744    5.02398424161684    8.87200094834011
C         7.96168942304963    5.73002687978236    9.92784669568796
H         9.00271628393179    6.01436740437081    9.87676180750347
C         7.20718712703209    6.04432933941532   11.04384832285581
H         7.65870460017090    6.58890414418538   11.86052608554020
C         5.87848952645250    5.66087905073002   11.11758255895660
H         5.29052173325814    5.90890424822652   11.98893526407665
C         5.30774696942619    4.95331796246664   10.07245673956696
H         4.27254297402386    4.64907299622410   10.12666217670241
C         6.06109336303317    4.63159856231680    8.95851761489249
H         5.61935118564485    4.08006632186090    8.14119385551527
C         9.87680161619084   -0.86880112931542    6.13462301602817
C        10.84466322208868   -1.17074167917731    7.08788580766980
H        11.46771909438353   -0.37849390219909    7.47707167438435
C        11.01480472213421   -2.47183983648452    7.52417562770774
H        11.77360519464921   -2.69638574674593    8.25985939969411
C        10.21404442913689   -3.48433617349808    7.02215246380710
H        10.34610471215550   -4.49992352420104    7.36506424134682
C         9.24045735101106   -3.18917023085374    6.08268642674103
H         8.60652744623200   -3.97414769459536    5.69635879649653
C         9.07199457210747   -1.88970478790673    5.63937647267915
H         8.30217767878570   -1.65558133544669    4.91850639701495
C         9.89897314976881    2.64843413558514    0.10292049218935
C        10.97025091090636    2.08574978685679   -0.58538675740394
H        11.90873159856544    1.93795158758143   -0.07230883106426
C        10.83595435305496    1.73243000365856   -1.91576245536550
H        11.67228510982641    1.29741900659940   -2.44267867828487
C         9.63174913582372    1.93122065000508   -2.57210520815807
H         9.52830814430641    1.65301708810011   -3.61029104399267
C         8.55830433106864    2.47935769266342   -1.89086526907950
H         7.61414407141195    2.62585802876086   -2.39496449577310
C         8.68945787171513    2.83417597148469   -0.55901079108619
H         7.84708529557205    3.24282806161260   -0.01881925221512
N        10.27323713053521    4.75464942498943    3.21241415757316
N         9.47166853410834    5.43936460850913    5.74181514464377
N         9.08370247823082    2.81040165665587    6.33614379413827
N         9.85389385952661    2.11646814906153    3.81752312687048
Ni        9.66960027289195    3.77930407234455    4.77880505029121
O        11.20953315594838    5.12690728648278   -0.21653262438148
H        10.60914716756526    4.65721992308812   -0.80662073820845
O        11.43982893090165    7.66482246914826    1.55956972896139
H        11.89730623835109    7.76746457233047    0.71628530116821

