57
CSD_code = ZAZPEV | q = 1 | S = 0 | Stoichiometry = C27H24ClN4Zn(1+) | MND = 5
Zn       13.11059586070334    3.64567048750189    2.65733530917784
Cl       14.48918692206340    1.96014346600547    2.39836357048368
N        11.24674596930225    4.85594373607202    2.88895990437105
N        11.97215527974332    3.28221107397761    0.86734880605773
N        13.88289118592322    5.60294791339959    2.69672746911557
N        12.39277753582303    3.18523961127491    4.60393055734929
C        10.75367463470963    5.24519520563549    1.56452216762444
C        11.69862096293047    5.99434291532685    3.67256860130628
C        10.33907625183767    3.98856510536091    3.62286711323864
C         9.33035255463639    5.80952092548497    1.57382325829013
C        10.93107373186140    4.07699877803195    0.61548892657321
C        10.10534265205750    3.86118129779168   -0.47911089825977
C        10.37118320022269    2.79559056917305   -1.32583446684872
C        11.45752973742656    1.98033118981846   -1.05587967671088
C        12.23212250683015    2.26341627317354    0.05529529369374
C        13.05193412456930    6.47808617743073    3.22206372790092
C        13.39436858239557    7.82816857443592    3.40663366195644
C        14.63668790346754    8.26256297849834    3.03151063325019
C        16.83486635209498    7.72432888798517    2.03421549273110
C        17.67301198602393    6.79920220107853    1.47666238025662
C        17.25041194504502    5.46999065139469    1.31397533159016
C        16.00063548188646    5.07468184016636    1.71021077452262
C        15.11884811920002    6.00077364749055    2.29559230262836
C        15.54183235694215    7.35199970134396    2.45512762215225
C        11.07916240455591    3.18083177601547    4.65797091847303
C        10.36283760928261    2.46472437652123    5.63141319388246
C        11.05296156430969    1.72560844236098    6.55408671395752
C        13.24532840834484    1.04660300559561    7.48735139321463
C        14.60936775642820    1.13501708059045    7.44934854233967
C        15.24265622975223    1.93995780858745    6.48878933136272
C        14.51171586729211    2.62779342308762    5.55812870530234
C        13.10957209448844    2.52468258197739    5.54843760918587
C        12.46141023056247    1.74667580867293    6.54818106134727
H        11.43568047826401    6.03044501977022    1.21041368672079
H        10.98491497813747    6.82828809276333    3.64205920422872
H        11.79519924886268    5.68098118495692    4.71631067540288
H         9.53589770512613    4.55158582454352    4.11922883959882
H         9.87463898245631    3.29422180679418    2.91587765415402
H         9.20779315060649    6.51436793260051    2.39306484170344
H         9.13502719993990    6.34950010954369    0.65177436004313
H         8.58688727391784    5.02371329768837    1.68185394259695
H         9.26951804221041    4.51070419874474   -0.67664435306465
H         9.73874262748670    2.61125776323828   -2.18042681842413
H        11.70291926167654    1.14358261000457   -1.68856326126378
H        13.09001342910272    1.66146681380355    0.31826496983061
H        12.67575823417961    8.50207773611253    3.84587000495377
H        14.93013486735805    9.29292678607186    3.16542527398160
H        17.14422136177220    8.75046301937607    2.16273432557298
H        18.66324575908715    7.08457632102102    1.15745677863275
H        17.92245573447043    4.75200314539058    0.87032100033067
H        15.67771519325338    4.05216683932549    1.58679128772443
H         9.28457678506659    2.49351196043665    5.62529498981274
H        10.53379461603999    1.13840430757684    7.29669105801302
H        12.74687186194448    0.44670800646664    8.23360090046803
H        15.20886858407646    0.59357676416859    8.16446084737801
H        16.31907606601517    2.01328069904168    6.48812629134309
H        14.99291055623995    3.25150224930247    4.81940816874363

