49
CSD_code = ZAZQUM | q = -1 | S = 0 | Stoichiometry = C22H21N2S3Zn(1-) | MND = 4
Zn        0.14116748948972   21.33074152383158    2.58386683835779
S        -1.59634820511569   19.89965655716317    1.65573668838403
S         2.40232695085910   21.21955952112194    1.74279900339874
S        -0.14668806148960   22.32548548903122    4.82148118972701
N        -0.45973555477293   23.19446403007704    1.56110687792131
N        -1.02127056591131   25.31230250562751    1.56720142923632
C        -1.06683605332601   18.26933968263880    1.94139305603843
C         0.07443208162956   17.96295783008156    2.67930431727173
C         0.44566944504926   16.64921915734829    2.88076261614637
C        -0.31147912770618   15.61339423534570    2.35712080228733
C        -1.45049806192297   15.90985952137929    1.62426792162513
C        -1.82669211154342   17.22016322455785    1.41694855128607
C         2.75720530424482   22.90045688971863    2.06897201425128
C         2.96424065907579   23.78309664977128    1.01023316669785
C         3.23672067675439   25.11488687279240    1.25280840379265
C         3.31713889488056   25.58810695446434    2.55356347454414
C         3.13553867181529   24.70862450210313    3.61109784962469
C         2.86620141679619   23.37468688438817    3.37563430492922
C        -1.52367759638839   23.34575333770927    4.52900347485602
C        -1.54224014662866   24.62874846592405    5.08173585581781
C        -2.61488054594457   25.47039127616181    4.86885279566139
C        -3.69026194564208   25.05467631600866    4.09761560034761
C        -3.68420099505958   23.77675083381713    3.55886825466747
C        -2.62157491746098   22.92462821768165    3.77759295411941
C        -1.52650490091065   23.35663146016864    0.73672419337334
C        -1.88982243431795   24.66930981061290    0.73051272179141
C        -0.18552381180134   24.37866347786232    2.04768995158508
C        -1.04515583404282   26.69797753604997    1.93267773671581
H         0.67501641927661   18.76654271867225    3.09177438612106
H         1.33725171807698   16.43233405225911    3.45351428172774
H        -0.01667032914448   14.58514412610564    2.51783352622992
H        -2.05038612306952   15.10934698811360    1.20983764035678
H        -2.71280503447006   17.45721742954890    0.84629106049024
H         2.89258181860581   23.40901519062130   -0.00063590550828
H         3.38435731288610   25.79328716322057    0.42141564632251
H         3.52521767511591   26.63361012912673    2.74254046660187
H         3.20204462052021   25.06721907819592    4.62988328961906
H         2.71601706409284   22.69395084939717    4.20060514173912
H        -0.69782255292428   24.94928305865393    5.67480306136557
H        -2.61401685806102   26.46167083625112    5.30734797321183
H        -4.52783568701837   25.71789471570320    3.92413245505605
H        -4.52034329005271   23.43851052355244    2.96174317743130
H        -2.63027052651776   21.92905976508233    3.35743324259902
H        -1.95129164535357   22.51854818071551    0.22286209521210
H        -2.67469786805687   25.18836964870918    0.21967456614072
H         0.60841212154659   24.59209919734453    2.73465331954263
H        -0.05904671367859   26.98889144112664    2.29229606754877
H        -1.31101243261857   27.30762484589210    1.06839244711401
H        -1.77555040977495   26.86394729838903    2.72953001673137

