89
CSD_code = ZAZREA | q = 0 | S = 0 | Stoichiometry = C42H39ClN5PRu | MND = 5
Ru        4.19979155771663    6.57372861553580    2.42653188790558
Cl        4.52110028506745    8.81882274252741    1.84945881297430
P         3.69963321843786    4.38131610352313    2.99981367605687
N         5.05200989460715    5.97384299653162    0.57914491934804
N         2.95999680873515    5.85316636382182   -0.59144359522567
N         2.42694822572986    6.69128458788835    1.57340473697510
N         1.16314839259354    7.52264506195029    3.43004327501039
N         3.43454885024401    7.27350836340693    4.16163499693625
C         7.27696518584691    6.71866353692833    1.27930131605636
H         6.70543797245585    7.02162879114143    2.16803284325721
C         5.75955560115030    7.17162974150490    4.81359313190472
H         5.72926731054655    6.60847318115327    3.84259848742064
C         8.58272225155117    6.04759255471679    1.70650286260341
H         8.42372569150350    5.02819394623900    2.05072929030563
H         9.04156216441317    6.61697533869906    2.51238501429972
H         9.28899715490734    6.02010473863251    0.87977525998520
C         6.40143941701109    6.26340832731726    5.86123629261943
H         6.48432591440559    6.77819086985906    6.81553384528145
H         7.40134961745252    5.97637318309498    5.54243975899372
H         5.82056759843816    5.35398333845852    6.00704034203745
C         7.57874074940091    8.00155839183036    0.49396477098095
H         8.04352177207464    7.76698788049178   -0.46176324613050
H         8.25004795696079    8.63647645838124    1.06774639159318
H         6.65762179523881    8.55076282712999    0.31644721536115
C         6.57276452342655    8.45257065313442    4.62076826026770
H         6.15237130870105    9.04271790530293    3.80653032696152
H         7.60821618172620    8.21335568500316    4.38532160425305
H         6.55367375527293    9.05110260539233    5.52894356905538
C         6.38539533784569    5.86036086427209    0.41370933876030
C         6.94075413978045    5.08885639829962   -0.58885483525308
H         8.01138760188799    4.99983206782990   -0.66702469938753
C         6.11401520201749    4.44477893455617   -1.50638184275398
H         6.53200472184137    3.80594045480842   -2.26988923283883
C         4.77351031828145    4.70903369577595   -1.45421685203538
H         4.07542508701727    4.33112129587178   -2.18187200093567
C         4.25433309588633    5.52145123691141   -0.42391062990218
C         2.18752016587975    6.43821184394773    0.26880952930977
C         0.79437331050596    6.79260048102968   -0.01428375868230
C         0.03258272082583    6.73714295562913   -1.16381064882916
H         0.46452425322280    6.39835194097936   -2.09206415335328
C        -1.29423517336286    7.13818320230119   -1.07611112329238
H        -1.91695376250197    7.11237068257447   -1.95866111256003
C        -1.83685194545125    7.57609927663462    0.12519307013728
H        -2.87225338062821    7.88312986247717    0.15584615906919
C        -1.07398950408969    7.62911010690337    1.28457321687554
H        -1.48620152633278    7.96798492422509    2.22157371627298
C         0.24542926637589    7.23234142094922    1.20099805197304
C         1.32419144429541    7.16857366387569    2.19136577999980
C         2.13528707345221    7.60414283611528    4.35975740384218
C         1.71306037196861    8.11130720376656    5.60708573145082
H         0.66445688546167    8.33037417602240    5.71779866959909
C         2.62219055985772    8.33278549463674    6.60563031836942
H         2.31703213638147    8.73529308006494    7.55975203698664
C         3.96355126539703    8.04232873193446    6.35934287074381
H         4.71322984531166    8.22890562303480    7.11106729671308
C         4.32366472217764    7.51374994640458    5.13753990777215
C         4.97100255996773    3.36465826804818    3.83359145581591
C         6.30323976602138    3.67634926781549    3.58964670280337
H         6.52418773615695    4.50409992058350    2.92601552498057
C         7.31752664847136    2.93949103192678    4.17267603904800
H         8.35150303986609    3.18706974335477    3.97915614386863
C         7.00216142121937    1.88235285262220    5.01037359007982
H         7.78964103900729    1.30740414322814    5.47447354555294
C         5.67562613655587    1.56010471934238    5.25044354689348
H         5.43165999684569    0.73093767602347    5.89828888089350
C         4.65986315186219    2.29283737403513    4.66332008305892
H         3.62637402989364    2.03678683134094    4.84813925028191
C         3.26931022796655    3.29480660343731    1.59724530458788
C         4.18025531035261    2.35945896629537    1.11356017361262
H         5.12008092071838    2.20504402793496    1.62486396472731
C         3.89099147654009    1.62504359100529   -0.02183951576127
H         4.60589093976544    0.90149565903714   -0.38576276768291
C         2.69653954853694    1.82046524874210   -0.69389092571085
H         2.47545145966184    1.24815990005100   -1.58259468607548
C         1.79165131589680    2.76036101957344   -0.22971291520099
H         0.86523231092633    2.93208642766294   -0.75716839369724
C         2.07790832336553    3.49891704309353    0.90272085043751
H         1.37842683312684    4.25195684356762    1.23693257731739
C         2.32788422172164    4.17087812647454    4.19573167567301
C         1.09338394475368    3.58932676277655    3.93439963056766
H         0.89195582570531    3.13292481761302    2.97783221409659
C         0.11361459645798    3.56633352196890    4.91294125327133
H        -0.84316621663565    3.11499279265150    4.69413584045139
C         0.35107562147349    4.11483226337541    6.16055228102504
H        -0.42185434612707    4.10473968297669    6.91433139059514
C         1.59095635819923    4.66505957253182    6.44210225731413
H         1.79486643000528    5.07929400456273    7.41867324006788
C         2.56883901073838    4.68884443007862    5.46869639912186
H         3.54173497203532    5.10445967484059    5.69604713284097

