72
CSD_code = ZAZROK | q = 0 | S = 0 | Stoichiometry = C35H29CoN4O3 | MND = 6
Co        0.64110139734442   11.04692078808933   10.96984917369435
O         1.40094301998591   10.44235761023745    9.20017187202540
H         0.92149557252484    9.54869500260927    9.10435895170364
O         0.02260469229009    8.30888848482366    9.33120873448135
N        -0.92828075555679   11.76285795389128    9.87369117472452
N         1.38451210057901   12.72097678536371   10.62912304513120
N        -0.07752239111439   11.54372947057131   12.58925845434870
N        -0.14825629074871    9.27509911267664   11.36230968673529
O         3.22000046612447   14.06832997618517   10.94829452336453
C        -0.62392612817059   13.00901190205956    9.44451949733394
C         2.29051071779146   10.72462428545765   11.87878385932956
C        -0.51720851374348   10.49171061025714   13.32807679617517
C        -0.50837928404101    9.22190963157876   12.68927269881628
C        -0.94149781239821   10.62669784564845   14.67207236178016
C        -0.12713135533856   12.74912201729032   13.12906119242256
H         0.21882515376263   13.58142397733481   12.53482404888101
C         3.15507461961700   11.82614021282963   11.83432913705545
C         0.63464126424056   13.55070642889746    9.84803164624835
C        -0.58288860483535   12.97988287916773   14.43093712493750
H        -0.59795180381959   13.99153730253584   14.80459404310251
C        -0.97142942069687   11.92707012982410   15.21558784831428
H        -1.29023069449333   12.07164514155402   16.23686134704545
C        -1.28080385120109    9.46601940911080   15.39102319349228
H        -1.60712779842323    9.55969062293667   16.41515521359859
C        -2.06097789042760   11.21930632172749    9.49275998961770
H        -2.26461566831333   10.21486007110077    9.83486278105965
C        -0.45334740700012    8.31793730536391   10.48149786936116
C        -1.50041819375342   13.75813123313372    8.61582022575649
C         2.63085998925283   13.00713726260875   11.10330657871435
C        -0.77184487112387    8.10061565469545   13.46259758018352
H        -0.67779031110666    7.11082806026899   13.04769420620246
C         2.70745017178925    9.56841643730938   12.51552772191601
H         2.07199509759278    8.69628382285246   12.57107987047209
C        -2.98662371881973   11.87575252752210    8.67170091988342
H        -3.89883547214695   11.37083503854731    8.39397490824516
C        -2.71239383511759   13.14507224797785    8.23878836615954
H        -3.40444579856158   13.68408038109695    7.60745830556216
C         4.42649246192737   11.77954369199424   12.41853687500704
C         0.96773207607258   14.82939372457381    9.41849329456868
H         1.91476427379588   15.25196820597190    9.70921720641612
C         0.09270357960897   15.55695989428549    8.61345832640396
H         0.38646123502978   16.54810451899565    8.29913230061419
C        -1.15946347717633    8.23630643192573   14.79622278050225
H        -1.37343813059108    7.34247305692084   15.36325177449758
C        -1.11794681970668   15.04905411933786    8.21187125004004
H        -1.78313479279259   15.62151461021802    7.58302879064007
C         3.96647135335670    9.51272843971424   13.09722844448701
H         4.28519535558652    8.60513812988897   13.59122732708787
C         4.81165241698298   10.60449216391469   13.05051442032418
H         5.78831300964193   10.54465167121588   13.51017821369797
C         2.75089783096942   10.27227724496210    8.82330143631473
H         2.79382394631797    9.96491542897084    7.77381997976428
H         3.25827373467587    9.52510153152709    9.44047531358842
H         3.26493953230513   11.22709256484059    8.93530208608539
C         5.35532234356846   12.94906097645418   12.37067961399627
H         5.55829881212850   13.22926362312581   11.33889820104956
H         6.29242327531325   12.71745084419661   12.87260426755429
H         4.89708088890874   13.81538652802349   12.84374351764533
C        -1.47171767457327    7.26794793722763   10.81432091551487
C        -2.75685552098620    7.65583369011789   11.17622032323693
H        -2.98633590983643    8.70584553907065   11.29622477510965
C        -2.16485943523119    4.97692548836501   10.89482671959295
H        -1.93606856805984    3.92591039542964   10.78931892484221
C        -1.16548365952327    5.91199060454900   10.66234992304971
C        -3.44300124300000    5.36642272385894   11.25436141152943
H        -4.20518759111929    4.62074776811060   11.42597129917814
C        -3.74129163154355    6.71045284995794   11.39533389321265
H        -4.73633282471928    7.02267138491685   11.67516568036254
C         0.21848427685291    5.47863761540953   10.28923374467454
H         0.49930603569288    5.91665411535380    9.33312629821780
H         0.27878120197117    4.39537218748656   10.21644860787046
H         0.94101324621087    5.82180635395652   11.03074711545311

