72
CSD_code = ZAZVUR | q = 0 | S = 0 | Stoichiometry = C21H46BP3Ru | MND = 6
Ru        8.36826904252936    1.63205463135103    3.92246310759480
P         8.27543692609912    0.23665398543104    5.71932597342250
P        10.26928896999306    0.78255588144817    3.00745631075501
P         6.84307426757203    0.40317465009910    2.59322147132427
C         8.08502090573485    4.81224624337220    4.44089529640107
C         8.98507749566201    4.17449079696706    5.52580894194333
C         9.71821104203529    2.96258237321381    4.95460679993441
C         8.88792790931355    5.68944993230424    3.46880459785941
C         7.03406405593001    5.71110633654925    5.10858480752414
C         9.98720987309017    5.13675043476692    6.17307609020084
C         6.15313454747315    4.00276676880422    2.71303866906611
C         4.85929891155398    4.11340910557717    3.22889868207022
C         3.79360807488969    4.52435711343023    2.44870205574182
C         3.99023148918877    4.84307711623178    1.11563439034523
C         5.26227277123798    4.74936219837333    0.57846952567872
C         6.32130648916117    4.33768539545680    1.36828910556260
C         6.56477414512994   -0.02170323669348    6.35251603870149
C         8.82511040377423   -1.52348295693224    5.65734517080527
C         9.07651390839566    0.69512978783302    7.31082258776524
C        10.35191060318134   -0.86752950527307    2.18391200666967
C        11.80168265708904    0.63180123736478    4.01631644246890
C        10.92810540449497    1.80312855008205    1.62544233650430
C         6.73611591873444   -1.44187233883321    2.51829430319393
C         6.95760056359850    0.76130279119960    0.79130223307877
C         5.04200010338728    0.72250064794356    2.79960701120984
B         7.38558749394071    3.58411863742870    3.61988881260093
H         8.30725330706762    2.88966844373783    2.85798533822223
H         7.10244608167949    2.55964868986149    4.49341153941661
H         8.31198740768767    3.82270375127277    6.32268401513581
H        10.47164115009788    3.34442320468319    4.24659056819972
H        10.28752578341842    2.49498243391316    5.76691649798299
H         8.23927292624491    6.03525373045908    2.66531159976139
H         9.70856120605749    5.13033607415522    3.02359007717998
H         9.29545112854152    6.56570552417532    3.97059400077708
H         7.50583069386404    6.52106867861406    5.66419557064939
H         6.41969878800740    5.13821640057894    5.80164168896319
H         6.37951266282095    6.15416462242407    4.36035179106538
H         9.49392272379229    6.02705403692679    6.55816526475425
H        10.75067379971562    5.44227024152924    5.46107778518067
H        10.48576579708914    4.64275285401628    7.00678648948169
H         4.68675898726333    3.86549937040689    4.26825841205683
H         2.80464333236221    4.59717168640650    2.88121061883557
H         3.16006955875635    5.16421741078329    0.50231474166284
H         5.42941679175828    4.99984500672379   -0.46081388725739
H         7.31121885377458    4.27779752552717    0.93196443240051
H         6.56321274505878   -0.64781726757212    7.24486545591772
H         5.96252653799637   -0.49220385981010    5.57675071640222
H         6.13408166730059    0.95212434615135    6.58595796349763
H         8.59755790399745   -2.02700048587506    6.59677379676472
H         9.89941579816102   -1.55418656102362    5.48255340066672
H         8.32342814934423   -2.03453145433974    4.83891103960720
H         8.78305374274837   -0.00403150389161    8.09405731275075
H         8.76880174104327    1.70314685853494    7.58191659825356
H        10.15868744060716    0.67715489744747    7.19651550852403
H        11.34457715019767   -1.03218440544264    1.76499154556052
H         9.61391447788435   -0.90983843355647    1.38498705905505
H        10.13345319582555   -1.64749725090356    2.91090757778361
H        12.61288302451682    0.22332550069909    3.41369895402448
H        11.61063119254414   -0.02258381794290    4.86517210949066
H        12.08349498712453    1.61230455197333    4.39096701832579
H        11.85874113602638    1.38769794297845    1.23820902245940
H        11.10156620584687    2.81461050690860    1.98939267263500
H        10.18427069188107    1.84607117200204    0.82997819125620
H         6.04243144121125   -1.74130947762395    1.73262671138603
H         6.37224365874141   -1.81491276832020    3.47468952792351
H         7.71258114267396   -1.87652232063533    2.32177441028619
H         6.21030492683168    0.19779412313005    0.23241365094980
H         7.95263822005667    0.51266073029966    0.42502483364767
H         6.78869432831452    1.82853564288398    0.65072977075368
H         4.46594282676374    0.11834776262136    2.09830850025982
H         4.84840579880430    1.77795984542344    2.61770876938574
H         4.73647491529836    0.48658946220713    3.81775856954303

