70
CSD_code = ZAZWAY | q = 0 | S = 0 | Stoichiometry = C19H46BP3Ru | MND = 7
Ru        3.23707452382589    1.81892763610050    1.03096379085151
P         5.05337910607170    2.90494490749858    0.16064897361712
P         4.42574443689521    0.00861252867041    1.79011320154055
P         2.47717890111343    0.89574352346683   -0.92588124903375
C         0.10994588427466    2.74732016891717    3.67081662500954
C         0.83196285323333    2.15154027828357    4.89298967407959
C         1.63737343428444    3.15452584461246    5.71869810458582
C         2.50261615833969    4.09646807381920    4.87964960977467
C         1.82465686817186    4.67344209291619    3.62391009646598
C         0.69115694800444    5.67379128044648    3.92914400694274
C        -0.53201961974536    5.07309323707587    4.62360605577612
C        -1.00803795413762    3.74773144477949    4.02427112327649
C         1.42584609717757    3.18393521956923    1.28253333717690
C         2.37925775266226    3.83244398601461    0.48411509091607
C         6.53337236387650    1.95102957241792   -0.40100170328634
C         5.91069120322514    4.07355164994054    1.29006134716226
C         4.93672544526158    3.99939655658019   -1.32231913118816
C         5.78626267705849    0.36971981939085    2.97748477461852
C         3.45294761300968   -1.10534205816958    2.87402132935038
C         5.24966130955949   -1.29964273390361    0.76599457170287
C         1.33197453000197    1.79354691600186   -2.06142899330002
C         3.64191263971306    0.28598291712717   -2.22194319781434
C         1.47636783743398   -0.63236889180493   -0.71484032281399
B         1.18815897023991    3.49225623443423    2.78241654537960
H         2.13051847443473    1.01589445772136    1.72864934331684
H         3.63263722244839    2.39632871988044    2.40490216390418
H        -0.37585428242030    1.90602597711318    3.16121266331061
H         1.51744547839866    1.39342296620590    4.50419877647243
H         0.11223047321336    1.64939328559112    5.54807329521732
H         2.29564544800515    2.59493057691411    6.39231652048449
H         0.96858415651226    3.72914544529544    6.35762674897742
H         3.37460251498100    3.53868219974232    4.52731121987287
H         2.86238580337539    4.91108539883551    5.51737684666938
H         2.59907457102198    5.24219519299559    3.09485712929725
H         0.37476843223933    6.10487154262382    2.97418107901216
H         1.07737638191393    6.49224504404304    4.54522694670431
H        -1.35353673934499    5.79477697894928    4.55839075242005
H        -0.32328369166760    4.94566989909704    5.68385509900638
H        -1.71686997709761    3.28240234206471    4.71654860452009
H        -1.55002346908857    3.96180039504450    3.09793724924760
H         0.59658374519909    2.70807806268749    0.74626359353668
H         2.92521038751223    4.66039247252254    0.93327593983828
H         2.17276863882774    3.97333006303677   -0.57516364679805
H         7.34313636518133    2.63062069709680   -0.66941819311119
H         6.26708317557142    1.34940399934415   -1.26913605108270
H         6.87035975024781    1.28862992281923    0.39389153275290
H         6.73274057343011    4.58167788142504    0.78400644318457
H         6.28753633422156    3.51498858324495    2.14590962149251
H         5.19203326460181    4.80481520148582    1.65628980726690
H         5.93594942494578    4.28501550292387   -1.65185393799572
H         4.37147550395530    4.89692880835610   -1.07944190614738
H         4.42965608388819    3.47433302068477   -2.13128128944254
H         6.23300557689225   -0.55421473608221    3.34564542112505
H         5.34397012752426    0.92533057063349    3.80351440530578
H         6.55230661352638    0.99014268571986    2.51722195597321
H         4.08071769405149   -1.89468840174441    3.28974066762906
H         2.63260186879072   -1.54111650755591    2.30612436529580
H         3.03249528736508   -0.49657574958006    3.67272589713636
H         5.73918596661535   -2.02308229354631    1.41726456438098
H         5.98646372328526   -0.86343326795208    0.09507628544716
H         4.49042237237184   -1.80948868228613    0.17369925908014
H         0.99298110382535    1.12421598271141   -2.85268663716580
H         1.84399788827599    2.64410428863387   -2.51084426112652
H         0.46971892129046    2.15649799224897   -1.50365991350111
H         3.09433658426957   -0.21280855786716   -3.02213390785677
H         4.35192297488913   -0.41029118498208   -1.78030432572904
H         4.19265316670822    1.12937775460175   -2.63721180175169
H         1.16285073415597   -1.04373641190530   -1.67515729478772
H         0.60226726245612   -0.38584113971733   -0.11265880419525
H         2.06715810966785   -1.36952718350111   -0.17208588805509

