77
CSD_code = ZAZYAD | q = 1 | S = 0 | Stoichiometry = C30H36AgCl2N6O2(1+) | MND = 2
Ag        9.68732798991398    9.57542895563915    1.60277470478109
Cl       19.05347211776626    2.55168730603713    5.77059211321581
Cl        0.25395802833683   16.67030642970024   -2.28357511212218
O        14.45538246169839    8.72435724042905    4.20688086979109
O         4.37019103616625   10.83894121027360    0.99833142367123
N        10.91930618130522    7.98201397051907    2.32426538387881
N        11.58163511051872    5.96773310070691    2.96459313962660
N        12.52229423030726    6.86461189913939    3.27588566372026
N         8.42904737448193   11.18844463098192    0.97653943686831
N         6.68719606136588   12.40883710602838    0.52921313809719
N         7.74311389813511   13.22169215090929    0.42780563542097
C        12.12298614903210    8.07453554537337    2.88235656449054
H        12.70984107259545    8.96398865247500    2.99530037242236
C        10.63269580577535    6.65572559913617    2.40125113903560
H         9.72537847225824    6.21545474758251    2.03824931214457
C        13.72404794500677    6.47058538510365    3.89900224649548
C        14.37936686107373    7.45701983571572    4.83493943283091
H        15.39171742586642    7.08033813760487    5.02649469577281
C        13.66924978594168    7.51979751184519    6.22600667886378
C        13.69450993504831    6.12997508798399    6.86304380207092
H        13.12207445833604    5.41670513285540    6.27583446781543
H        13.26086364598101    6.17563527929339    7.85847470087381
H        14.71406521888293    5.76187198584671    6.94992471699002
C        14.45844489354280    8.49038860317028    7.11388695991602
H        15.51408960960838    8.22664776612296    7.13728682250247
H        14.08013617750305    8.44560680763627    8.13160458913942
H        14.35412883416895    9.51811091587900    6.77060066331493
C        12.22515346786111    8.01220860745853    6.11292841167310
H        12.17317999965052    8.93338002183727    5.53546494313527
H        11.83255827842313    8.21344676774203    7.10662796522885
H        11.58598430722236    7.26292460864523    5.65170118057726
C        14.14008061153726    5.21641172090212    3.68788071664220
H        13.49902061985738    4.57449554613073    3.09568491628861
C        15.35733219968277    4.59000968757597    4.19787121140989
C        15.27166074547057    3.34432357125206    4.81939431135267
H        14.30756840349190    2.87254890679430    4.93358884385386
C        16.39999251638309    2.72064509198453    5.31343067291230
H        16.32474338827637    1.76502222589656    5.80695639517678
C        17.63973747422454    3.32655977806674    5.16188804172855
C        17.74951023328815    4.54686160016787    4.50931324809674
H        18.71969238623042    4.99679601686857    4.37098416593805
C        16.61345604527590    5.17341860643608    4.03522443929431
H        16.70654609878635    6.10494878111509    3.49698037946010
C         8.77165472508704   12.47471733542052    0.70217329726961
H         9.77841966506659   12.84238146932901    0.70743057357729
C         7.10486382013517   11.18439307644565    0.85246635629297
H         6.45323827360135   10.34204497917086    0.97085831503643
C         5.38186201233896   12.88081468601838    0.28174608465045
C         4.25369281380633   12.24908043942573    1.06042771160747
H         3.32272862770285   12.56297912228173    0.57219199742269
C         4.17463277405826   12.77875920513670    2.52882563154924
C         5.42562087721178   12.42409354817585    3.33503087453974
H         6.28412685143604   13.00795158340539    3.01136594404324
H         5.65772143676112   11.36443207455104    3.24527982552516
H         5.25410799329720   12.64512851881470    4.38564759428225
C         2.95217871254840   12.13572151128126    3.19622340053692
H         2.78280374394728   12.59254165425309    4.16757049911179
H         3.10088609508733   11.06946830805120    3.35750452186859
H         2.05698976569471   12.28495607990137    2.59552417826444
C         3.98664090198929   14.29600020020567    2.50351228346944
H         3.86355885623102   14.66655401889261    3.51766731501740
H         3.10355977372911   14.56745180008969    1.92990228787692
H         4.84705258881710   14.79267862800684    2.06277173945293
C         5.25518579643909   13.91896078928526   -0.55282920694553
H         6.16660975582745   14.35695782864304   -0.94166233611856
C         4.01625756637456   14.56636824587019   -0.97737864667880
C         3.91508676303112   15.95517560718748   -0.89827348703959
H         4.74339895009026   16.52683719169128   -0.50812605163872
C         2.76000479164066   16.60395697248972   -1.28680394721536
H         2.68232262225572   17.67641758833553   -1.20786873210123
C         1.69731782014666   15.86735606846651   -1.79197722776387
C         1.79565758339911   14.48832879081191   -1.91720973280072
H         0.97605115679678   13.92722052253483   -2.33701808257777
C         2.94746238331174   13.84491965878348   -1.50804646342561
H         3.03405453368829   12.77655097844252   -1.63935227511061
H        15.03278318836945    9.28552472283615    4.73526766933239
H         3.55782922389083   10.45713426283392    1.34747468433934

