45
CSD_code = ZEBJAU | q = 0 | S = 0 | Stoichiometry = C16H16BBr6ClN4Ru | MND = 9
Ru        5.02128493768645    5.75038153146832    7.46647385690014
Cl        3.78871143828991    3.85163180991010    6.83227927009418
N         5.83559524323549    5.52690208843150    5.59214744560293
N         7.10956047718557    5.19357887787253    5.36416505457782
C         7.28283484427473    4.94428005065113    4.05939585725152
Br        8.89955679206173    4.45113774263678    3.28972058673941
C         6.06975097564105    5.12858329491834    3.40586407212346
Br        5.70090334799883    4.95277559550946    1.58367724473142
C         5.18873516901679    5.49092708223261    4.42582218199012
Br        3.40132676803470    5.93788426808409    4.21572909419497
N         6.38835334183295    4.35616752801775    8.08465116937188
N         7.59492976571170    4.18850883976418    7.53500189623359
C         8.18213457961979    3.10671832308627    8.06530828981533
Br        9.87724376499576    2.50086539867095    7.60704192595345
C         7.32316894073662    2.54903239284496    9.00591708778273
Br        7.60905791710738    1.05157140031602   10.08432048183979
C         6.20076640734533    3.37811602696775    8.97210990317255
Br        4.69240739549460    3.23498750028758   10.04406832744056
B         8.12937333558183    5.24021267795405    6.52798363614856
H         8.03693268061690    6.31322493425981    7.04012628634772
H         9.20378364453845    4.94657683901113    6.15438315730268
C         5.67490548494340    7.51486767434200    8.87115310157835
C         5.30010436645069    8.03855951007393    7.62557413842539
H         5.96855978499552    8.72101766425669    7.11097494717089
C         4.01031187880160    7.78936259244369    7.07871786947227
H         3.71639757813849    8.29619519559524    6.16517294379501
C         3.07736574420467    6.99353770676998    7.75847313987738
C         1.69086195940661    6.77123101947927    7.24742461633949
H         1.49041985802490    7.37363402646484    6.36538172356982
H         0.96346670822300    7.00845299353063    8.02250925012523
H         1.56216932082622    5.72087703629507    6.98124546920310
C         3.47719591631851    6.41017599679181    8.99688679137666
H         2.76016231496674    5.82066544715192    9.55882034894939
C         4.74005676805227    6.67053980346102    9.53899443297882
H         4.97317917520865    6.29420397329906   10.52896030873329
C         6.95253419495001    7.96344585297350    9.53884908844148
H         7.63512593754807    8.32497882919434    8.76132279598628
C         6.61300814841071    9.13499848198452   10.46941849946450
H         6.14424566318706    9.94515607991736    9.91469840554123
H         7.52004749765953    9.51297627054948   10.93348357055699
H         5.93098826519611    8.81349536002459   11.25390103456801
C         7.66121180352181    6.85179064989681   10.31201037579113
H         7.08331270381229    6.53272671043754   11.17623590935957
H         8.62307684905225    7.21247936478287   10.66726639726470
H         7.84038031109960    5.99316755739193    9.66843801581651

