72
CSD_code = ZEBRAZ | q = 0 | S = 0 | Stoichiometry = C28H39ClO2STi | MND = 8
Ti        9.64277345403050    3.55170232809628    5.12731563462900
Cl       10.07195823206798    1.39293923626065    4.97069142197109
S        12.80904558592080    3.23993971609877    4.16859351081193
O        10.85968758134965    4.14696651034462    6.13052845223701
O        10.02754603345789    4.08192119725327    3.54617148719084
C        12.65295751032636    4.64247080497156    7.75749506759432
C        11.99247128908665    4.87769124713341    6.36039307338467
C        13.16833306343450    4.56320408197057    5.37644362457061
C        14.32048685679978    4.20031292679007    6.31847026523188
C        14.76403836184439    5.52193510867175    6.96634778700958
C        13.62059745486810    5.82286459307413    7.95604757964556
C        13.62594918478603    3.46857629346957    7.48455467153375
C        12.94195129300303    2.15814055014154    7.09887712121078
C        14.58082241159394    3.14034456147186    8.63474956091443
C        11.63592939278618    4.45681092321145    8.86483166928519
C        12.27660660965186    4.20783655859099    2.72741991185081
C        10.94344328405554    4.94048498958676    2.99001998682201
C        10.43812125456949    5.50400165115930    1.67582079351403
C        10.69140735771691    6.81684305099306    1.30492138076414
C        10.21959799986048    7.30155002662972    0.09723184394667
C         9.48824814611419    6.48010790653365   -0.74381416848166
C         9.23164806969824    5.16935680781812   -0.37628427354561
C         9.70834742517992    4.68174836652071    0.82664454157532
C         7.39668412968535    3.73912129355818    4.50933890040718
C         7.84820513384126    4.96482595467294    5.06705520047560
C         8.15974493122329    4.73701573125875    6.44427033942185
C         7.94363159993528    3.36323329969123    6.71388709703283
C         7.46519872793365    2.75253985536317    5.51957561056037
C         6.86303562328848    3.53267688270113    3.12067639128393
C         7.84559687223552    6.30834203725874    4.39449630412972
C         8.47420521999566    5.83113437297684    7.42649985718388
C         8.07914635634721    2.64330601761023    8.02702220256428
C         6.94046037035270    1.35030910954991    5.42170164904715
H        11.72000228556203    5.95104253614526    6.26571883459890
H        13.41943339601090    5.43368355531491    4.76635818861298
H        15.11814408514141    3.65392573859107    5.81928737347497
H        15.72147060965174    5.40734102655619    7.47170438163079
H        14.88169052522130    6.31059303530806    6.22302174423411
H        13.13566270551538    6.77729558654208    7.74719912500658
H        13.97230739949994    5.85592031684076    8.98645312318291
H        13.62843954458844    1.53403280061591    6.53089801624893
H        12.04560644894141    2.30801629127754    6.50117380655332
H        12.65143290297468    1.61524202719593    7.99628824283588
H        15.28677684129639    2.38342239057707    8.29979655275193
H        14.02377838277746    2.72967734871475    9.47378147724831
H        15.14522807599105    3.99386601637821    8.99132951457411
H        10.92194772027197    3.68614728051501    8.57568425394718
H        11.09902973381489    5.38706133407645    9.04268112036695
H        12.12809415077682    4.16067155332769    9.78799389722516
H        13.06251830215336    4.90749787093824    2.43803792535352
H        12.13484484816146    3.46453602133110    1.94131834994421
H        11.13624248265730    5.78091896936349    3.69390495637807
H        11.25493955590990    7.46203625824766    1.96479874869855
H        10.41939703655343    8.32479857398053   -0.18527536738811
H         9.11683894325918    6.86199179657563   -1.68311678626459
H         8.65997219055820    4.52622230728691   -1.02902248418117
H         9.51174995506465    3.66283095205995    1.13197974209255
H         5.77027854850741    3.50416128364319    3.13313152096612
H         7.21957032154371    2.58879818408066    2.70408853509444
H         7.17393198270732    4.34031707989129    2.45942746820194
H         6.86043356703875    6.77577630402645    4.47763458614073
H         8.08685966444151    6.21860003139012    3.33427220086593
H         8.57491503172964    6.97472851630188    4.85698851165974
H         7.65480420994679    6.55379143713440    7.44958483953276
H         9.38708410239313    6.36742362396862    7.15671700696953
H         8.59893367140720    5.42999106691378    8.43013020330172
H         7.11506930882898    2.23079221895050    8.33289387942345
H         8.42474523967536    3.31321553376409    8.81285234413845
H         8.78741449153776    1.81395081855212    7.94076300388261
H         5.89612914659977    1.32066617725529    5.74592269934266
H         7.51525397689233    0.67271898283424    6.05121748696892
H         6.98875179736965    0.98444316207867    4.39718648061532

