54
CSD_code = ZEBSOR | q = 0 | S = 0 | Stoichiometry = C21H27AuF3PS | MND = 2
Au        2.68500607483686    3.85481310156306    8.10280616106919
C         2.04023472996889    0.39887246599106    8.28269399286467
C         1.23849179797826   -0.74361240959980    8.32052412118590
H         0.16615347435295   -0.64378227980117    8.34556419173847
C         1.78882947634160   -2.00994412818919    8.32200392047641
H         1.14405375814340   -2.87587015503481    8.34977919523913
C         3.16496393291984   -2.16214218688305    8.28941474264911
H         3.60529257460823   -3.14775253784919    8.29575438289889
C         3.97093317278980   -1.04205459298468    8.23914569959808
H         5.04563512035708   -1.14764224118393    8.20134640284792
C         3.43038223536852    0.24185005956069    8.22819248576588
C         4.39495142695106    1.36053254091852    8.12664683074130
C         4.77727282754040    1.82808733636385    6.87172409586546
H         4.31698011415480    1.40757038218294    5.98802872840805
C         5.74170430749037    2.81299527027030    6.75747817541026
H         6.02526111281256    3.17504898387426    5.78099192922055
C         6.33825997224051    3.33679853279464    7.89157155537308
H         7.08121761586838    4.11311645701306    7.80164518528803
C         5.97476785891831    2.86515156450625    9.14081161519072
H         6.43983465233757    3.26897427809471   10.02726720858321
C         5.01487918036973    1.87572033951548    9.26018822284957
H         4.74214724120933    1.49729913824598   10.23524891905118
C         0.49889840544672    2.15141042567016   10.02739779063522
C        -0.37255961001119    0.97134371860326   10.45127181766934
H         0.21343312826228    0.05848016244016   10.52881376640098
H        -1.20428564231210    0.80626458967402    9.77285426743155
H        -0.78623025002845    1.18451146145196   11.43649848016186
C         1.70252868212913    2.23059768472347   10.97222232108414
H         1.36337344222433    2.32430372128158   12.00227677927594
H         2.32561904967635    3.09385551784154   10.73703631263478
H         2.31270146585924    1.33081662984254   10.89373662957779
C        -0.29675502008999    3.45338433234149   10.10866245557841
H        -1.22808205541517    3.38530362234029    9.55043012156602
H         0.28658831389782    4.29012075055313    9.72272359989091
H        -0.54428869241056    3.67025934025721   11.14656580271814
C         0.04386324925070    2.08944718345357    6.89197347183987
C         0.81496150635032    1.49043747438844    5.71247289204732
H         0.95754042883230    0.41748624135886    5.83121779088119
H         1.79478508376696    1.96419143967890    5.62934086800650
H         0.27424675411720    1.66486802859334    4.78401223657341
C        -1.28855227681959    1.36900582582348    7.08487224506536
H        -1.88279677572820    1.49446377636165    6.17995703621358
H        -1.85351588473003    1.79538281222568    7.91039820507058
H        -1.16702494177942    0.30158032115382    7.24381349816259
C        -0.24822804147207    3.56201375108237    6.58642518865115
H         0.66852994330631    4.10872105141297    6.36827055926588
H        -0.74797141231173    4.05570594599972    7.41575118027868
H        -0.89463572398192    3.63328067709809    5.71322321858887
C         2.60279592969388    6.90637750082672    7.85552877864103
F         2.97148520377831    8.18640653178229    7.82003000948925
F         1.74387161856077    6.79492019402797    8.90081159946039
F         1.82073136230212    6.71337863325848    6.76495848810959
P         1.29038307153209    2.06541337770162    8.31747162376908
S         3.97443703051192    5.79273735742299    7.94635320294228

