61
CSD_code = ZEBSIL | q = 0 | S = 0 | Stoichiometry = C26H31AuFPS | MND = 2
C         6.05122867200061    0.35514624712252    6.90059376436007
C         4.85447073666331    0.95735288387312    7.28195137443009
H         4.35834266784354    0.62334154511623    8.18478586977722
C         4.29820772409212    1.97382389817848    6.53024819388304
H         3.37066001386052    2.44084196246541    6.82452405662399
C         4.94965335246861    2.39159663938270    5.38585020342923
C         6.14258920489141    1.81816021659043    4.98108056858510
H         6.62879870777208    2.16727373956036    4.08332731702375
C         6.68699052344396    0.80435099005862    5.73999572478317
H         7.61546046453332    0.33988603828179    5.44711896413863
C         4.20320605305511   -3.48484821284053   12.22846915649256
C         5.30215009697184   -4.30852443396824   11.95736554946052
C         6.31055804848520   -4.03601055824611   10.90908369811604
C         7.38459853482852   -3.19407229980483   11.18755237563659
H         7.43437708911861   -2.69995365291653   12.14868254736477
C         8.38478473964547   -3.00471203032503   10.25096596831322
H         9.20946507713433   -2.34470415753794   10.47344931066092
C         8.32450306937658   -3.65299960353009    9.02932032923930
H         9.09682456261448   -3.49235036440849    8.29429585686527
C         7.26573368834415   -4.49957067491443    8.75060625439704
H         7.21498084560839   -5.00687559737260    7.79888501976149
C         6.26821451903787   -4.70028824148665    9.68800657566769
H         5.44858568147874   -5.37272637015114    9.47563164202372
C         5.50457907793248   -5.44934604316647   12.73102097182299
H         6.35245275821292   -6.07993787649312   12.50469157025399
C         4.65615063402466   -5.77376297659983   13.77092104307321
H         4.83180149603988   -6.66317661664845   14.35701649901693
C         3.58652393651843   -4.94325147896437   14.06136914902930
H         2.92147492852943   -5.17410852901663   14.88045677076110
C         3.36533120874435   -3.81639279365197   13.29485693935120
H         2.52728752556035   -3.18300978703439   13.53369195637642
C         3.65115977260415   -0.57662640673113   12.36790959539122
C         3.84177707562600    0.69507364538888   11.53439071998986
H         4.80061062258810    0.67973742650931   11.01624054442788
H         3.82427217376171    1.56784786148409   12.18550834410333
H         3.05353162395542    0.81206910781372   10.79425885694270
C         2.34644081564574   -0.43971427251492   13.14960481729430
H         1.49663560641516   -0.31007644584295   12.48358916303146
H         2.41197207574950    0.44933258701830   13.77692856598041
H         2.16140244052956   -1.28330579111218   13.80765932427307
C         4.83983879514753   -0.71202563864085   13.32351729562389
H         4.70542443810696   -1.54309269908825   14.01385772198962
H         4.96100370453428    0.20112360947974   13.90391451794524
H         5.75688731248803   -0.87801954235129   12.75511517637444
C         2.23637537026962   -2.53640512087494   10.32562711344298
C         2.67326428339003   -3.65314527614865    9.37143534219547
H         3.45634056068648   -3.30497435040065    8.69643496630861
H         1.82762276577580   -3.98593480283119    8.77193843526832
H         3.05412738441919   -4.50824148319800    9.92974801899565
C         1.74263496711947   -1.34047601310133    9.51281184788479
H         1.32595235072756   -0.56697797942015   10.15485706028513
H         0.96283902363339   -1.65833259979402    8.82222497536189
H         2.55567203983049   -0.91355827460914    8.92499181525599
C         1.11194418971484   -3.06848600342042   11.21099857054718
H         1.40436274858169   -3.99152342192057   11.70606406038138
H         0.25161409505473   -3.28971368486999   10.57963831266622
H         0.79614521973554   -2.34630199167714   11.95795772381574
Au        5.34249263545503   -1.48423876823703    9.52948783188543
F         4.40458403325126    3.38926590242725    4.64241653325649
P         3.84815193039070   -2.03511188273562   11.17230765239364
S         6.80713430593243   -0.93331955214121    7.80054987600834

