14
CSD_code = ZEBVEK | q = 0 | S = 0 | Stoichiometry = C2H6Cl3NbS2 | MND = 5
Nb        0.23351405819859    3.89456749776770    5.33803597916081
S        -1.59275794106764    3.16070038348515    4.31566472214742
S         1.17831888769987    1.02577944875909    5.01224111425395
Cl        0.31461220326987    3.18684978113072    7.44859062607868
Cl       -0.25688097715547    6.06321674224626    5.68606576888099
Cl        1.92285518170556    4.12087817346400    3.90294823449073
C         0.84745170443804    0.80340497488262    3.23846700729030
H         0.90425700808671   -0.25561302177378    3.00317835329797
H         1.61923644215393    1.34877867844893    2.70357592253890
H        -0.13352232096730    1.21169418537080    3.00417517084574
C        -0.26889057381824    0.15712844369100    5.68737818530123
H        -1.17490038430806    0.61608015859882    5.29726325745652
H        -0.22666363982178    0.26693700042857    6.76685114929033
H        -0.20482964841403   -0.89200244649952    5.41376450896645

