21
CSD_code = ZEBVIO | q = 0 | S = 0 | Stoichiometry = C4H10Cl3NbS3 | MND = 6
Nb        3.51357783510384    8.66214387833111    4.94951798396311
Cl        1.63307179412780    9.71679822691804    4.20234069860758
Cl        4.93502676618874   10.37082608327454    4.57953779810843
Cl        4.56910209222710    7.72305387389151    6.72173276983644
S         2.06704134276443    9.95422566467479    7.40781748434178
S         1.52279268791229    6.70802146709066    5.94057157463101
S         3.86018277261704    7.17994803198056    3.31797074515306
C         2.73834820023087    9.40972710456496    9.00421482568382
H         3.19729016284154    8.43034219289174    8.90084782667456
H         1.94382062048211    9.40804813297736    9.74438065908587
H         3.49645571871728   10.13774535107825    9.27568179395222
C         0.52050380942325    8.98558659716014    7.32555005284295
H        -0.10148288304062    9.30955809850201    8.16233108776579
H         0.05528911117251    9.30105014742783    6.39079909666772
C         0.69075255582831    7.47881688112759    7.37916796769503
H        -0.28675154429618    7.00131495209603    7.46190970426206
H         1.30053969712674    7.18171862005927    8.23277193001468
C         0.21295278365950    6.76613323115903    4.68796941879826
H        -0.07042226182046    7.79597737987032    4.49048727742842
H        -0.63020785175934    6.17099716598727    5.02708809173999
H         0.65111659049358    6.33096691893738    3.79301121274738

