109
CSD_code = ZEBXIQ | q = 0 | S = 0 | Stoichiometry = C54H36B2Br4FeN6O6 | MND = 6
Fe        1.51428997706028    2.10377084635146   12.40361832498638
Br        6.52387012472983    1.36919480439102   18.80957441227837
Br        5.03799586379922    6.75674652708217   17.89761971875659
Br       -3.50955376857427   -2.30471136919203    7.97546804762703
Br       -2.77354895848793    2.72710759259848    5.48461317610649
O         1.10137866470136    0.76943740604760    9.95210599466899
O        -0.03637634017434    2.90385104403794   10.18362569146872
O         3.94980372636135    3.11348820268314   13.40717857233999
O         1.97426551308946    3.55283474643678   14.75925948189703
O         2.94753345864875    1.32305263479012   14.70853281855742
O        -0.84183143090328    0.95843417815691   11.40467862476512
N         0.53225951820264    3.30425049961107   11.34145245267027
N         1.27833389542334    3.51985098681207   13.60258466359640
N         0.03145301918286    0.96333993793458   12.43455979031625
N         1.95688336614526    0.99035171464821   13.85271604599775
N         3.33227714324293    2.57999036305636   12.32858075829239
N         2.03089689659134    1.25230800099625   10.80768221845233
B         3.24951210169445    2.78256464438764   14.68908886855541
B        -0.23285788032695    1.42730662389170   10.12676403527179
C         5.59155081656442    2.67153486303072   17.78610088061368
C         1.10455826014734    7.07670006657282   13.12492139018040
H         1.21155802344877    7.01881400661426   12.05223315295975
C         5.67237743123140    3.99979864128870   18.16526372186132
H         6.25259525438953    4.30390234723100   19.02289122337344
C         3.25372405075058    1.42507690205768   10.37853527849066
C         1.12913004252310    0.03465940757738   14.18586130576255
C        -1.50554003843261    1.89314773978355    7.89113625006632
H        -1.05498635840554    2.87209630228373    7.88247098566393
C         4.84693934091849    2.26681465119057   16.69373436204431
H         4.78710585763025    1.22489745578400   16.42495145013781
C        -2.68575619922205   -0.59240148287834    7.92740680408667
C         6.24209106616719    1.03051755300162   10.86762734244631
H         5.71298253253641    0.13663300030807   10.57370054624737
C         0.17625041586023    4.45239246392230   11.85614870361274
C        -2.37958723296878    1.51030466851493    6.89066536274428
C        -0.69850972557539    5.63713722974493    9.85191367192376
H         0.03540407453751    5.12742844317675    9.24771545222199
C        -1.21222959961497    1.01786728683775    8.92953817517425
C        -0.73986198297287    5.40517687990130   11.22583512319195
C         3.73402252597714    1.05732680849146    9.04438334424477
C         1.41491861931786   -2.29951305263019   17.72087109295697
H         1.48429724366185   -2.88694903055238   18.62391004247447
C        -1.81311958472979   -0.23654544200579    8.93785955077514
H        -1.60322550513905   -0.92071104085466    9.74460178288002
C         0.08554609001811   -1.11255738392624   16.11384111069844
H        -0.87660838423675   -0.76329644173939   15.77090629003508
C         6.21970871382241    3.28444756284116   11.71097057389959
H         5.67317969605072    4.14798666063360   12.05543572448648
C         0.05031507777371   -0.06570346827841   13.24238087071094
C         5.52620152209113    2.14532855004451   11.30667575827083
C         4.06327422390654    2.09255180249835   11.36035380986133
C         1.23607033530829   -0.78284031023837   15.39611127602852
C         4.15364658300598    3.20544850281483   15.93962842529881
C        -2.17396995789020   -1.08459986073584   12.76243262300419
H        -2.58851465284256   -0.09853201564285   12.62528517372678
C         7.62200069704847    1.06283204961143   10.82718854451143
H         8.16758274153356    0.19440602537598   10.48952740659209
C         0.17893189988085   -1.86582498577675   17.26757704161685
H        -0.71620117646428   -2.11323754221366   17.81839781052899
C         3.78670559953055   -0.45441688209280    7.17337729421841
H         3.47079864075414   -1.37820756299142    6.71237150009872
C         2.47588186139720   -1.22070458368561   15.85899119381089
H         3.36796319090675   -0.97667115163322   15.30393189206237
C        -1.68464867471800    6.07744368327621   12.00223915282364
H        -1.73368220353373    5.89113130666217   13.06440246625282
C         4.22605248837301    4.54509233679217   16.30684803515567
H         3.68289297487568    5.28213514809792   15.73702095891066
C        -2.98618861983397    0.26667863804601    6.88511196042429
H        -3.67054825207192   -0.01997334080643    6.10144413007419
C         4.59363314678955    1.91635600462026    8.35793220234056
H         4.89426055566743    2.84817795180559    8.81258763635516
C         0.74827972809330    4.63173544178096   13.16144214137735
C         0.72195356359094    6.00134135830437   15.24351250714916
H         0.51095270538536    5.11231100815709   15.81636038542200
C         8.30547500397386    2.20254464667411   11.22098840324903
H         9.38429790440847    2.22492430637988   11.18660173103612
C         4.64537989299317    0.39848730519966    6.50064779911454
H         5.00081840044686    0.14199295278882    5.51403427974982
C         1.26008954484861    8.28694816207038   13.77181601041784
H         1.47550018055158    9.17568528420743   13.19773194608087
C         1.15084914661884    8.36143067401116   15.15167085443491
H         1.28196797106812    9.30706587237503   15.65518579037433
C         2.56088185617098   -1.97481164760607   17.01443074100152
H         3.52557036073848   -2.30948186858795   17.36542004495382
C         4.97460167695993    4.92194625185060   17.40537052572722
C        -0.83421534589486   -1.22702379048705   13.12156553431768
C        -2.51738983063942    7.18953274756507   10.04552141859081
H        -3.20855309927563    7.88072045948920    9.58733891793993
C         0.83463997768430    5.91850418894098   13.85625158078781
C        -2.44154582319070   -3.47028037152831   12.75812771161157
H        -3.06289111533503   -4.34006965617349   12.60869112128907
C         3.32853163602691   -0.12940037232871    8.43667036447271
H         2.66040011152757   -0.79549468262541    8.95914085860544
C        -1.58305988740225    6.52506886939728    9.26881913569809
H        -1.54375293519380    6.69812102303105    8.20377188161707
C        -0.31033046100167   -2.50893048991251   13.30003847577118
H         0.73045636898692   -2.62974934977746   13.55997286618738
C         7.60124616717230    3.30950612429829   11.66374619407732
H         8.12988334019331    4.19789945823715   11.97521408046948
C         5.04330451384433    1.58580468683998    7.09485710420247
H         5.70542492130878    2.25804854981153    6.56995189987463
C        -2.56535410343761    6.96252502285509   11.41202316732112
H        -3.29545314144678    7.47553017038317   12.02001601240379
C        -2.96855539411337   -2.20201566625950   12.58204922299243
H        -4.00271075351967   -2.08182358373426   12.29643969108993
C        -1.11167021795361   -3.61910511743071   13.11978936151230
H        -0.69496112759103   -4.60609026435589   13.25417556583871
C         0.88021136826869    7.21723451321122   15.88301039200972
H         0.79806855898873    7.27024103646114   16.95815272670135

