61
CSD_code = ZECFIZ | q = 0 | S = 0 | Stoichiometry = C26H30AuF2PS | MND = 2
C         8.42671996986402    8.43146363422846   17.28650738646747
H         8.09208729169539    7.75399530870691   16.51248203575851
C         9.15864170295234    9.55916198832935   16.96131485236411
H         9.38222938522532    9.77389566811933   15.92743259614783
C         9.59727240001837   10.41406291913598   17.95776605162355
H        10.15537614640032   11.30034369756857   17.70175581778814
C         9.31021781526258   10.13274590810786   19.28196726227416
H         9.65172017328196   10.79645470711504   20.06188182299626
C         8.58601371580838    9.00125579779488   19.61311380254153
H         8.37592409030499    8.77310198319837   20.64865393380116
C         8.12341870958372    8.14925724330299   18.61613843538461
C         7.42343819849380    6.88982013912479   18.95512925726354
C         8.22884814981843    5.79091057092944   19.24552032722627
H         9.30124491563513    5.92315937750041   19.23836536139163
C         7.68364179761089    4.55434480997128   19.52864687965194
H         8.32619927883343    3.71560970745297   19.74996548326699
C         6.30762218134424    4.39764407038243   19.51570206243249
H         5.86564335074745    3.43398241680983   19.72169664784686
C         5.49621458396798    5.48029499321534   19.24040664404039
H         4.42812515515559    5.33950597217321   19.23385445412860
C         6.03179637219997    6.74028784863016   18.96691359151263
C         3.75607774158255    7.61215132484568   17.28444352244604
C         2.58159975326206    6.71207310971707   17.66124980036818
H         2.89821170852316    5.76428408767178   18.08597373162766
H         2.01591819104644    6.48697639865747   16.75722249982036
H         1.90785775971704    7.20995030261540   18.35450951127096
C         4.66061474362393    6.91977884942791   16.26114489928995
H         5.53894981973917    7.53688480641709   16.06227726958986
H         4.12568181088518    6.77918929997144   15.32344440239883
H         4.99517093476106    5.94635403873207   16.61540339234459
C         3.19278080687220    8.88696578860507   16.64747343149436
H         2.60568553715339    9.46699395413611   17.35587060774258
H         2.54514758064636    8.62558220653187   15.81201976607291
H         3.99560964238309    9.51679693383336   16.26494239435063
C         4.09758857708737    8.42683873629601   20.32479000973224
C         5.23050251087463    8.94178784932838   21.21891608737657
H         6.00021230918446    8.17980705813941   21.34027230373322
H         4.84339385512901    9.19556159701361   22.20425495511095
H         5.69071440878864    9.83356000734618   20.79127317182218
C         3.04686877827627    9.52314325460917   20.15561753518292
H         3.46747244970924   10.38129753626412   19.63052264176570
H         2.70617126648428    9.86379538035844   21.13219153224851
H         2.17940037612775    9.16391751525264   19.60591816299097
C         3.47677055454235    7.20038682489391   20.98914002061107
H         2.70247027386158    6.74607779296861   20.37852236382054
H         3.01821664938532    7.51187315789446   21.92733040809727
H         4.23303650498491    6.45469906150826   21.22291356536917
C         5.49089225240732   13.24975171055559   17.02098255399427
C         4.15739998032731   12.85317505718355   17.12080263729768
H         3.90251005002649   11.86932621176097   17.48579310186225
C         3.15634459847241   13.72416590627186   16.74941627175392
C         3.40807677789407   14.99747760977696   16.27511618557057
H         2.61382858164230   15.66489198359230   15.98844218081047
C         4.74118278881529   15.36910413264577   16.18876585471564
C         5.77432772673564   14.53456558763975   16.54682885236134
H         6.79761171201703   14.86144715974263   16.46355775685189
Au        5.90095850028269   10.16260327168035   18.05365041775931
F         1.87141525811803   13.30818336814502   16.85537336585557
F         5.02986143643088   16.60660474292670   15.72977777974354
P         4.94042003625532    8.17374419065556   18.65483989528933
S         6.82335037173505   12.22783343250425   17.45830045358450

