61
CSD_code = ZECFAR | q = 0 | S = 0 | Stoichiometry = C26H27AuF5PS | MND = 2
C         4.96548132361131    2.75581995979248    4.18192043497032
C         4.01370237168078    1.71830370232787    4.19661905134264
C         3.27029591295208    1.40787245976613    5.32099812277773
C         3.44505532703055    2.12824693319771    6.50121962309704
C         4.38186510353963    3.15301626414407    6.52256932461186
C         5.12243072326842    3.44624506336594    5.39006721520143
C         6.70683265136704    8.72189343423489    2.57101749886893
C         5.31757966398078    8.61893318047623    2.70453556881183
C         4.57484847480416    7.35906360884273    2.93787793752030
C         4.19067420897344    6.57023166254593    1.85539191085592
H         4.51962184460453    6.83892664585364    0.86103041060562
C         3.37748224169885    5.46712453934672    2.04679524714171
H         3.09092792493641    4.85770814600518    1.20352193068173
C         2.93463001791194    5.14425890673295    3.31828044410540
H         2.29604859795643    4.28621247883612    3.46589085891157
C         3.30861660466800    5.92612337295964    4.39807564039682
H         2.95803012885739    5.68396627312034    5.39065826115652
C         4.11906964443705    7.03158770844184    4.21055747020953
H         4.39505515495369    7.64908619489890    5.05289657118309
C         4.53663703968546    9.76763767096039    2.59018803965343
H         3.46579851351734    9.67407315034820    2.70030257825408
C         5.10167590966490   11.00122842864234    2.33508114240991
H         4.47664412975689   11.87713721921134    2.24999891473620
C         6.47442205237474   11.10226774090589    2.18263389854567
H         6.93216910607456   12.05783539469314    1.97375471420362
C         7.26197745425267    9.97472252135680    2.30296647818712
H         8.32823569050971   10.07241612074125    2.18366269654259
C         8.90699808595255    7.21623743137388    1.26587880865602
C         9.44740610313124    5.78607058451074    1.15927020356817
H         8.63436431807187    5.06362870690262    1.09387019342375
H        10.06556631790124    5.52608491143852    2.01516777619970
H        10.05578040484033    5.69097617237245    0.26128052811581
C         7.96202275421372    7.46902863913473    0.08829403522268
H         8.45980592949527    7.22983237841171   -0.84972475855332
H         7.63790228581733    8.50753923137287    0.05042696129246
H         7.07948402889319    6.83255907363743    0.17564600832732
C        10.09841718778343    8.17008653335459    1.21587825558917
H        10.80117544770858    7.96517708493045    2.02003579109626
H         9.80513802365875    9.21472725784099    1.25233982247602
H        10.62338936959896    8.01636244234663    0.27318133530035
C         8.68307937922367    7.64687931533664    4.39817709727862
C         9.36926073642026    9.00669267898014    4.50093678021519
H         9.86187375307973    9.07026324261736    5.47071367227615
H         8.64556236081998    9.81653062529597    4.44477754490799
H        10.12609708305834    9.15018460780453    3.73593705343417
C         9.68762881048729    6.52229593064126    4.64272340512273
H        10.55009010269629    6.60857793910092    3.98476060512490
H         9.21769247348343    5.55047106109059    4.48654497435675
H        10.04445666226689    6.56243687333146    5.67055624515955
C         7.57446880285318    7.57984975623986    5.45290257148593
H         7.99792654021122    7.71068002922192    6.44701874040845
H         7.06656254937327    6.61809095672938    5.42469688944160
H         6.84009247595537    8.36814216002234    5.28988719390187
Au        6.75435830965896    5.22071837234428    2.92354548855727
F         3.80133038771096    1.01180055839928    3.08052553351910
F         2.36817927169618    0.41835675599713    5.27816012589847
F         2.72127779017747    1.84043955992302    7.59297143393269
F         4.57276261439085    3.86921730882180    7.64163264283077
F         6.02278019247148    4.45323082765469    5.48355080227991
P         7.77944613259027    7.25873821656994    2.78993779839489
S         5.84021549722720    3.05895399449357    2.73508645577836

