126
CSD_code = ZECJAV | q = 0 | S = 0 | Stoichiometry = C58H61AuClO4P | MND = 2
C         2.84670145183905    1.01862557514457    4.28751409912695
C         2.99478973640407    2.38768956601997    4.12183635199626
H         3.44176214734632    2.76829342824451    3.21434790237943
C         2.58140542348015    3.26466770386283    5.10892885689715
H         2.68877950164522    4.32969152150812    4.96205050127501
C         2.06766685921906    2.77886759749937    6.29825143515681
H         1.79084239570126    3.46618456404708    7.08574135765837
C         1.90493451642331    1.41473740585755    6.49284015401500
C         2.25954294508689    0.54221065963012    5.46183578786734
C         1.48175436065467    0.84269452955664    7.82082460546218
H         0.67741133103310    0.11856918574651    7.69451484223635
H         1.13891339269021    1.64632039836393    8.47826955178290
C         2.67596535112933    0.14374139713859    8.42808347452750
C         3.85407394376299    0.85432820943789    8.60768911913557
H         3.88211545877205    1.90240688906781    8.34584263784027
C         4.98052240646467    0.23791659535609    9.11490864374823
H         5.88212396448867    0.81140947059881    9.27527038972450
C         4.95268331789331   -1.11408006737028    9.39802865722459
H         5.84297298032253   -1.60856903516929    9.75940341944610
C         3.79303866541434   -1.85628686928561    9.22267935052977
C         2.64123898476134   -1.21159468277861    8.76399270275391
C         3.80927361040349   -3.34795667573913    9.47737081314713
H         3.96127464095942   -3.54885298894219   10.54151550085574
H         2.85572637115349   -3.76525929389049    9.15623382965915
C         4.93210006612071   -3.94034318091811    8.66961609453132
C         6.17715134282200   -4.19451064251392    9.22911712163700
H         6.31034980482101   -4.09053992733864   10.29730191548038
C         7.24002285191292   -4.59078048922176    8.43796898848842
H         8.19540427630410   -4.81809681846609    8.88821323099484
C         7.09343959669100   -4.63422075141588    7.06219479912795
H         7.94421895834314   -4.85946605775314    6.43442887153964
C         5.86410880206597   -4.37906910727516    6.47244374081192
C         4.76128015980273   -4.11989265367056    7.29517877014329
C         5.74219353400884   -4.16327143294942    4.98649835656114
H         4.83916807606090   -4.61039413739502    4.57494168224426
H         6.61067517708504   -4.56871563547914    4.46250600818687
C         5.68481416249407   -2.66801240311061    4.77849403134185
C         6.66102238835381   -1.87298893781130    5.35798712316328
H         7.46756383598740   -2.33619666884866    5.90769405151520
C         6.63805643035169   -0.49246541534676    5.22069819255616
C         5.57908391390335    0.10096490333200    4.54475343333317
H         5.49928338219932    1.17968646522991    4.51645601753034
C         4.58118039714805   -0.66841852373178    3.96737039819468
C         4.65182501577167   -2.06171624592191    4.05619229414603
C         3.41800433007050    0.03072814680036    3.30434445359721
H         3.75746023310842    0.55642986649343    2.40689595815528
H         2.67703309006075   -0.71689580648119    3.02109457306323
C         0.80259196264176   -1.24799147203871    5.15215844362433
H         0.65124793851742   -0.94721126216050    4.10257418887476
H        -0.00798669596116   -0.78518264965783    5.73870493867252
C         0.77416561320861   -2.76078408763416    5.28895286525507
H         0.99444096878239   -2.99725258198134    6.32958644609951
H         1.59083927447640   -3.15165222821041    4.68278396288735
C        -0.55781259231998   -3.35743782655984    4.85732002630199
H        -1.37394868960438   -2.96726344631940    5.46278458674015
H        -0.53995967240857   -4.43908237819016    4.96672159858397
H        -0.76854687382762   -3.12296162624062    3.81511714046961
C         0.71914995451017   -1.95039445562919    9.86454011479843
H         0.43798653635019   -0.92842883670427   10.16418659429511
H         1.33578548741271   -2.37688984334206   10.67039108389192
C        -0.53085565647232   -2.79913831505230    9.65740252859000
H        -1.01508185744798   -2.94442496155379   10.62505491458007
H        -0.22623756007669   -3.77529289390841    9.27632694677418
C        -1.49755721297478   -2.14876489419594    8.67666965864404
H        -1.84723834311542   -1.19265728735314    9.06176999416558
H        -2.35978105687128   -2.78975260230134    8.50816591318815
H        -0.99563579648346   -1.98179594447528    7.72812146680662
C         2.96023129045735   -5.24258716689885    6.30638121550869
H         3.75775573399628   -5.96048609380079    6.07505846005201
H         2.39844494481903   -5.03341707549383    5.39227054522542
C         2.02561161222326   -5.85355775854111    7.35413342287866
H         1.27466159423229   -5.10815848258845    7.62209294774423
H         2.60269134946643   -6.09649501154352    8.24991758838648
C         1.34551632538691   -7.10817717090220    6.82360274677543
H         0.75814765686540   -6.87746597646308    5.93757541807372
H         0.68285426926913   -7.52999345829939    7.57548572729966
H         2.08504851967759   -7.86025481207172    6.55692287272723
C         4.06265784832371   -3.23443672349279    2.12099493990711
H         5.04409416634551   -3.72295452084108    2.13503968662311
H         4.13975742025992   -2.34706453004828    1.47474530894694
C         2.99925551709639   -4.18518460638147    1.58624717264696
H         2.85934381995096   -4.99031025220677    2.30980241889901
H         3.36846488801478   -4.62116156347000    0.65674383086697
C         1.67104486624145   -3.47865831793194    1.34376047219302
H         1.32426548814584   -3.01656174113463    2.26386088705160
H         0.91757314080860   -4.18601232649261    1.00435580301443
H         1.78415410166865   -2.70527883929129    0.58627001514581
C         7.71509301607145    0.34238476603626    5.76563821000355
C         8.02700166546651    0.31817641363859    7.11971066066748
H         7.47800714170401   -0.35288904601472    7.76310252179419
C         9.00806603371303    1.14874224931642    7.62879665161762
H         9.23806735999431    1.12778363114684    8.68389403363239
C         9.69827931364380    2.00972373166396    6.78859342496158
H        10.45781751905545    2.66552786990477    7.18786413594973
C         9.43335065612799    2.01311758276947    5.43213866720301
H         9.99944001574368    2.65671221937885    4.77213021256745
C         8.44529889930946    1.17988375982376    4.91161850721176
C         6.98169912721863    2.23583159024061    2.61782655114260
C         6.80606897387631    3.42300756617426    3.32174263551215
H         7.37284408218017    3.60077860196191    4.22570715481783
C         5.90267972280921    4.36291841543560    2.86098116242621
H         5.76187500258547    5.28472295154689    3.40576241189430
C         5.17743494166322    4.12368411894114    1.70345563627117
H         4.47374842855088    4.86165613948562    1.34736503815313
C         5.34567079926970    2.93693386004625    1.00690216860881
H         4.77315657976921    2.74937191580329    0.11029434250076
C         6.24415213614460    1.99021955457220    1.46498995666123
H         6.38433693153473    1.05355676350500    0.93944847141633
C         9.74461084182953    1.65638676983608    2.44640416916440
C         9.82834458240082    2.80389963152275    1.66770062154213
H         8.94274905532387    3.38991286309930    1.46540812166081
C        11.05283954339436    3.19494466550718    1.15216886072427
H        11.11660377097068    4.08781951080332    0.54770319191655
C        12.18960915793194    2.44696017095644    1.40584426874365
H        13.14079668144358    2.75729050300822    1.00004800129366
C        12.10711121667804    1.29414120818002    2.17312472581007
H        12.99195728487516    0.70551596847355    2.36397559356383
C        10.88875196753591    0.89534433994069    2.68419480224817
H        10.80417952335517   -0.00898867536578    3.27482968137763
O         2.06540787350747   -0.81028570556253    5.61792842028653
O         1.45475390390360   -1.91631090039024    8.65437539863221
O         3.50348585029523   -4.00833451613773    6.74844813239765
O         3.69448658416965   -2.83537864585254    3.43976222194542
P         8.19653333364445    0.98936385344781    3.12480845469750
Cl        7.62212963426840   -3.28858666016721    1.80471027768791
Au        7.89286698389578   -1.12543264548194    2.43134351728532

