91
CSD_code = ZECMEZ | q = 0 | S = 0 | Stoichiometry = C46H36ClIrN3OP3 | MND = 5
Ir       -0.21977679570416   -4.77814416968762    5.85812586774307
Cl       -0.91640856728173   -3.75601652225635    3.81814437065399
P         0.14749182825893   -6.08209647599592    7.70954551571682
P         0.17547844618215   -2.59320831372094    7.14384928919431
P        -2.44657024578520   -4.64284940813134    6.56724647772881
N         0.08468583153102   -6.90168989873259   11.26902897579280
N        -0.03959355325181   -0.66705495357595   10.27887232056050
N        -5.18933093017915   -3.88793994261327    9.01093841914680
O         2.14000016244058   -5.80082307718360    4.29110985903171
C        -0.60021203320005   -5.36635386945694    9.30140636938571
C         0.04501429975411   -4.00585231434347    9.63116082591482
C        -0.53957185908961   -2.79130209575664    8.89102310194696
C        -2.07362318583717   -2.81912365338727    8.78616629369984
C        -2.69282389340457   -4.17513898777596    8.39555862030271
C        -2.13387626412434   -5.28687454053277    9.29387463340799
C        -0.21160014570296   -6.25062101850954   10.37582318249133
C        -0.22994180243090   -1.60493652532144    9.65042902794882
C        -4.09978791078643   -4.04130763916161    8.69379759450843
C         1.25311842501272   -5.40601670055887    4.91595932169054
C         2.26033418562899   -7.43133909397939    9.02440233046734
C         3.58175215119714   -7.56863606803935    9.40710310010557
C         4.52760065883220   -6.63483549523489    9.01443549899922
C         4.15463813340100   -5.56518217465020    8.21779627929422
C         2.83565855326908   -5.42585637308373    7.82840195996955
C         1.87544951332879   -6.34351003832111    8.24383228282169
C        -1.23556702616025   -8.50679270540328    8.53369450006377
C        -1.55712583657737   -9.83255073833314    8.29123527176349
C        -1.04664768943671  -10.49178189368141    7.18822152031046
C        -0.19821581266815   -9.82403323582688    6.31800194821283
C         0.11033286134929   -8.49931582228267    6.54542484799560
C        -0.40530615357941   -7.82430304271790    7.65338527196054
C         2.60193130066435   -2.03305526013259    6.15886095280130
C         3.94624888920362   -1.72475202133713    6.12472292582166
C         4.64125001311993   -1.54743827647623    7.31180293149563
C         3.98309488525150   -1.67366121851726    8.52251904155568
C         2.63165396026730   -1.97543246209754    8.56311766820360
C         1.93002172545403   -2.15464316750124    7.37727824690860
C        -1.50450713962238   -0.90312009083012    5.76043153491633
C        -2.04568690284444    0.31064115303733    5.37744293881195
C        -1.54428762720898    1.48671524750408    5.90804751382583
C        -0.48704636029250    1.44890128036192    6.80478294605440
C         0.05899395262855    0.24052484996190    7.19323631966777
C        -0.46861329217637   -0.94649736705828    6.68926973800883
C        -4.35436692156686   -6.71241566257315    7.17223034425483
C        -4.86531660743709   -7.98528685563070    6.98943775206310
C        -4.27951005295744   -8.85612231923825    6.08628385040935
C        -3.17828026368750   -8.44686941067429    5.35450830570437
C        -2.65183150767494   -7.18472448592976    5.55140531741181
C        -3.22395398656119   -6.30637675530251    6.46903602183814
C        -4.36040269493596   -2.54634437689872    6.10605949057890
C        -5.26815332939846   -1.90372343060075    5.28229738577351
C        -5.54689798848469   -2.40054367934397    4.02152533352563
C        -4.91755280440920   -3.55376118454893    3.58194365153317
C        -4.01746615648381   -4.20479266754199    4.40133523275261
C        -3.73513509754718   -3.71125396883973    5.67548305494499
H         1.11931774831540   -4.07617590832093    9.42455500137282
H        -0.06985354504797   -3.83332062159260   10.70970024984593
H        -2.37265346207840   -2.04614504134920    8.07018083371963
H        -2.49229013086433   -2.53608581320549    9.76173167279622
H        -2.46899762921025   -5.10421325645612   10.32411685319391
H        -2.55506899508940   -6.24323512570603    8.97308672675172
H         1.53326099416995   -8.16905280715718    9.33008170590010
H         3.87378430689382   -8.41157699327678   10.01498687945285
H         5.55679533133659   -6.74841947252712    9.32010706385946
H         4.88644360329418   -4.84069031721176    7.89326839265625
H         2.54337706042118   -4.60837171206271    7.18306657188452
H        -1.62242922576455   -8.03912338664359    9.42600079915357
H        -2.20876226679526  -10.35072997577085    8.97882283180440
H        -1.30435618214992  -11.52462993446283    7.00901639811010
H         0.21508004283177  -10.33508206953465    5.46147672172977
H         0.75684825284894   -7.95937493592412    5.86368224958920
H         2.04990476738875   -2.19648564925657    5.24038297465061
H         4.45470118375109   -1.62962248369238    5.17705481778762
H         5.69503352509076   -1.31238422368174    7.29228713554564
H         4.52098153949988   -1.53470253329560    9.44878526842364
H         2.14336491604440   -2.05345010296348    9.52285437173623
H        -1.86145862145974   -1.81936652893071    5.31086758776775
H        -2.85176696730104    0.33172150760522    4.65907667011091
H        -1.96482213092878    2.43658802815746    5.61240436873040
H        -0.08262014244433    2.36757806517947    7.20306171187498
H         0.88889306655945    0.22134166344837    7.88435906126222
H        -4.84827457303363   -6.04561883196959    7.86125427326373
H        -5.73440265332844   -8.29140290617400    7.55278458419792
H        -4.68673550190468   -9.84644159639633    5.94814960064881
H        -2.72434238567573   -9.11091312852398    4.63453520238566
H        -1.78163528685410   -6.86351877297903    4.98758380769488
H        -4.16455725208506   -2.12407293920966    7.07971343529363
H        -5.75302819422231   -1.00441496966293    5.63262029820993
H        -6.24970218245682   -1.88809357023734    3.38156550572040
H        -5.12261439037107   -3.94307295854316    2.59609825910132
H        -3.51697595768186   -5.09612177920143    4.05082673609357

