82
CSD_code = ZECMUR | q = 0 | S = 0 | Stoichiometry = C35H38BIrN6O | MND = 6
Ir        9.51100951752276    3.36027985411651    1.37816730161275
H         9.25141411049312    4.46541258842926    0.37600860094052
O         9.86214368601934    5.92378618469014    2.75077428357778
N         9.61029626330535    1.82778192527787    0.07608081258728
N         8.87135541060491    0.72275571539937    0.03430255364581
N         9.67438320830615    1.58110730993118    2.72576861909183
N         8.83086678471133    0.57104392376922    2.48550649425865
N         7.33308543034450    2.90849101021340    1.60889972923632
N         6.94046480869000    1.65412760078359    1.36570497229196
C        10.72487621062664    1.64427513800414   -0.62953956894464
C        10.66568484626613    0.37060932409787   -1.22064558599843
H        11.38456938903125   -0.08939485396876   -1.86726931283479
C         9.48635301760203   -0.17492195954003   -0.76058613819550
H         9.05405866393319   -1.13887524021252   -0.94285014168623
C        11.73499638589471    2.66022317631240   -0.41168414715238
C        11.41972426046805    3.58415218174655    0.61196204916928
C        12.38637509800051    4.53379385371436    0.91896568920600
H        12.18179866168605    5.27305081188040    1.67977133592600
C        13.62589902648709    4.56417617342104    0.28775431234961
C        13.90697043689226    3.63433081931811   -0.70583358764401
H        14.86586201234856    3.65406770594776   -1.20463043685251
C        12.96526483295552    2.68790427587036   -1.05695605594577
H        13.18042776193319    1.96364645955025   -1.82982925391231
C        14.64115256919428    5.60610288350309    0.65708363581998
H        15.64908857758017    5.19690842163635    0.62045154259359
H        14.45285082404851    5.99470685664842    1.65538855731400
H        14.59293893128610    6.43933308114058   -0.04471874055411
C        10.26133368116693    1.34754355732240    3.89704884753573
C         9.76399607993046    0.15097341255167    4.43685216703886
H        10.04839212999136   -0.31251375510612    5.35944992998494
C         8.86683898206019   -0.30569660063780    3.49866092474856
H         8.25978655398217   -1.18862860892558    3.48800240763770
C        11.31085135931747    2.18756628387352    4.46503460239734
C        11.30050008124735    2.51474950062339    5.81809603020061
H        10.48294004985705    2.18138227899176    6.44223293061341
C        12.32120644175976    3.27130055940444    6.36321516196737
H        12.29674176935425    3.52193768830515    7.41482760710622
C        13.37874118876145    3.71387707209190    5.57745617810075
C        13.38822299586986    3.37708991039434    4.22775967655358
H        14.20381172952898    3.70665545024644    3.60070036339103
C        12.37219509941438    2.62285539766990    3.67587503623080
H        12.40303703013710    2.35720790844992    2.63147243656382
C        14.49480343033728    4.52142099067588    6.16750069377892
H        15.36816850908676    3.88897000639673    6.32867901535758
H        14.20452419998457    4.94953372899195    7.12402490091722
H        14.78553779302954    5.32508390863864    5.49389823704792
C         6.24882116681826    3.62047993189316    1.91450022920464
C         5.12098803951293    2.78622966734467    1.86840462395828
H         4.10342834499099    3.06493899428195    2.05102325376268
C         5.61196792834660    1.55221613761050    1.51099090846734
H         5.10798472362519    0.61971850283783    1.35592918106688
C         6.23405368827977    5.04018974788969    2.26400084865203
C         5.54480515697532    5.44769723419458    3.40527181811693
H         5.07677780032132    4.70669324018546    4.03790078963626
C         5.46599386187840    6.78548773635988    3.73837867205278
H         4.93391777772303    7.08628205847902    4.63037830717316
C         6.05931803475781    7.75576356225779    2.93666588642871
C         6.73416091545494    7.34550766001473    1.79444290953678
H         7.18963783472729    8.08255255230889    1.14858983993797
C         6.82409780383351    6.00711055093829    1.45853169022881
H         7.34224354996122    5.70888832119078    0.56257869785027
C         5.96538316962167    9.20409971361885    3.31326935157038
H         6.45999767836771    9.38201008332130    4.26827071606294
H         4.92334829675718    9.50213156048195    3.42056825896826
H         6.43044872864558    9.83396185299674    2.55905683220082
C         9.63961195070168    4.64902838920521    2.80808309518256
H         9.56389034818899    4.26741923238094    3.84693717320290
C        10.05444221026167    6.75391835243431    3.93199509063868
C         9.00231232089315    6.46689567522426    5.00227110127997
H         8.01579581947724    6.40830656887609    4.54738382383302
H         9.00436673990057    7.27255096614975    5.73129044711324
H         9.20669068379531    5.53773283447146    5.52926277288697
C         9.91191906288563    8.18264162541309    3.41083675912518
H        10.57310006557745    8.32689702911128    2.56117890203254
H        10.16778375188629    8.89708740829309    4.18811156955823
H         8.89047644736752    8.35414696417081    3.08607214296572
C        11.46377949593368    6.50607214595356    4.46769074118716
H        11.59849684021775    5.45459916654520    4.70986319420389
H        11.63242846503804    7.09703931246663    5.36385127027861
H        12.20183180149230    6.78393557126343    3.71944147971013
B         7.93463980433502    0.49830217600684    1.22300093450942
H         7.37671986057306   -0.54441643767247    1.15934202038286

