79
CSD_code = ZECNAY | q = 0 | S = 0 | Stoichiometry = C34H36BIrN6O | MND = 6
Ir       -2.38954384249759    5.06690707471762    3.51123315280676
H        -1.36767606292668    5.22935106467340    2.40350127630990
O        -0.33296616348098    2.89018906250894    3.87988945007995
N        -3.30647005309751    6.83047008183660    3.16894910552983
N        -4.55590255067772    7.07703728252936    2.79174634793219
N        -4.25793271849519    5.04342393440908    4.84330394145363
N        -5.40532062902121    5.25446613530665    4.18194944127948
N        -3.77413145361214    4.17461846738293    2.03011731460644
N        -4.91726735421785    4.82084884675733    1.78601945995986
B        -5.48414779817186    5.85346257109438    2.75905730096389
H        -6.59817600598453    6.14468585867032    2.48140093086503
C        -4.81590242252959    8.38284997614174    2.99228915074112
H        -5.77215357072686    8.80080923137560    2.74673473649030
C        -3.69656496654245    8.98165509128520    3.53141585669857
H        -3.58144142278711   10.00950774630686    3.80883176531538
C        -2.76052677943409    7.94119854335597    3.65919301743561
C        -1.51346387458807    7.72871551001069    4.36865048317562
C        -0.77269132863597    8.74734982427958    4.95440182229990
H        -1.06727722090958    9.77653648144475    4.80558982170656
C         0.32846621804133    8.44294896718895    5.73022582151978
H         0.90501629075171    9.23568288980105    6.18598098944257
C         0.68895475110502    7.11824877092954    5.94092955848310
C        -0.05415587012099    6.10653488925905    5.33967314272040
H         0.23641451731275    5.08294823118249    5.53852193515205
C        -1.16462341058038    6.36764876780305    4.54350876073690
C         1.87921965409050    6.78236552606793    6.79097826939408
H         2.79612943825830    6.88858607015789    6.20998770581838
H         1.82243090981056    5.75695407605285    7.14924002689561
H         1.94743270782755    7.45325263356542    7.64541869047681
C        -6.44960000376308    5.01639500289558    4.98863878508124
H        -7.45564018775728    5.13452785626333    4.63930474788195
C        -5.97073374842435    4.63572754710221    6.21987291103954
H        -6.52998382184273    4.39114079152634    7.09963227365450
C        -4.57375433580336    4.68550447429609    6.08705064617353
C        -3.60804700809130    4.47522509105154    7.16020936755383
C        -3.76317315176533    3.42048124873878    8.05636935789102
H        -4.58391498557940    2.72856422961737    7.93073893340426
C        -2.86342775739022    3.24309243371052    9.09060688237079
H        -2.99428780715188    2.41580130724369    9.77432799807359
C        -1.79402156177685    4.11287642088465    9.26260229610341
C        -1.65590679264533    5.17696909017784    8.37778543875432
H        -0.83935115110941    5.87329417602429    8.50256430738273
C        -2.55199236538835    5.36320881643695    7.34476683822923
H        -2.44326787697527    6.20451274832247    6.68013959772466
C        -0.80745632160760    3.92183625017692   10.37462814824015
H         0.18383471667964    3.71964180106070    9.96948969539559
H        -1.09538587635018    3.09165615464362   11.01490527696630
H        -0.73924978794934    4.82358502945906   10.98151592360015
C        -5.43891394811773    4.40813785061985    0.62385143024415
H        -6.36323119317317    4.80731943875560    0.25790165768863
C        -4.59514657900064    3.46296233056988    0.08291630385331
H        -4.70763232466025    2.92311403749283   -0.83482033320543
C        -3.55273547763766    3.34597586908275    1.01049927513763
C        -2.38902260099362    2.45861115740157    0.92413014439714
C        -1.43719002005867    2.64942775126984   -0.07244891619423
H        -1.54900853052196    3.47255605577971   -0.76265771264613
C        -0.35065422921550    1.80200785350511   -0.17143437552242
H         0.38584741500033    1.96343465306211   -0.94597497794592
C        -0.18832883115125    0.74214852259915    0.71410577858133
C        -1.14864422570847    0.54805002892862    1.69739519484250
H        -1.04454392435282   -0.27681781569670    2.38829746618663
C        -2.23853399902813    1.39233376729391    1.80169012371447
H        -2.98898112746113    1.21726981286868    2.55689748425522
C         0.98711374530783   -0.17905373472151    0.58457875103860
H         0.83390854222614   -0.86520268528320   -0.24892178271885
H         1.12261399890690   -0.76918475316098    1.48786876388746
H         1.89818067952783    0.38311442894338    0.38831862648446
C        -1.52722018891513    3.40868221911260    4.08450643838118
C        -2.25482414307991    2.46232170448983    5.00916798625202
H        -1.82875059200543    1.46196593836854    4.94242429951912
H        -3.31914889298612    2.43514494814341    4.79808434549036
H        -2.12877979356046    2.82013561444655    6.03095755484978
C         0.64863366601608    3.49077631873941    3.03944947621050
H         0.78229126031265    4.53940530291824    3.31822519337438
H         0.29610751730564    3.44605803948157    2.00490534652698
C         1.93824570681570    2.70251947660933    3.20554470249020
H         2.28125702561376    2.75340455084692    4.23530811106395
H         2.70502871100677    3.11544666344253    2.55751398144940
H         1.77369319012418    1.66144057835584    2.94323096051167

