77
CSD_code = ZECNEC | q = 0 | S = 0 | Stoichiometry = C34H34BIrN6O | MND = 6
Ir        1.65244358089320    5.52984304914346    3.88904162853444
O         4.17342977639644    6.16125231869713    5.24752020539811
H         1.28072516029279    6.71872925140432    4.75622644120370
N         0.08281087791130    5.69385068800728    2.66368624176172
N        -0.87781362864552    4.80734759532547    2.41827977989848
N         1.85085796201196    3.70592795144510    2.62384472863328
N         0.74261672618920    2.97190697773456    2.47273965899897
N         0.43372386191445    4.10261030071282    5.16015782852608
N        -0.54459595190042    3.45506537342973    4.52079969073596
B        -0.65029567510349    3.40791192348704    2.99461043991644
H        -1.48664248247527    2.64446654188919    2.64739020491677
C        -1.54816732443828    5.19577014420967    1.31698793017485
H        -2.37465605065234    4.62471405170459    0.94259025100871
C        -0.98301292744122    6.35837045267836    0.83684806412898
H        -1.28278785522363    6.91688979437236   -0.02603861982208
C         0.08349832000669    6.62527519735913    1.71124787697949
C         1.25014118061927    7.48307960556780    1.73038436412556
C         1.44960021185136    8.54570716366924    0.85788276592370
H         0.67601231221029    8.80915036161329    0.15057777187851
C         2.63021089965529    9.25986198907492    0.90044357068714
H         2.78691167453379   10.08653480283675    0.22172998389049
C         3.61481948548982    8.92414929726359    1.82107266704788
C         3.40057293036623    7.86178611088687    2.69465548358551
H         4.17153471197821    7.62711761354338    3.41306022000809
C         2.23942938372639    7.10081430074520    2.66643712913241
C         4.90596209848674    9.68814363600756    1.86293230673147
H         4.74829125674065   10.73133886841720    1.59844839607766
H         5.61515603477806    9.26691734914572    1.14908512145378
H         5.35112460206903    9.63822693630888    2.85335640104059
C         1.03301674060389    1.83069774961059    1.83331991260357
H         0.27119691523245    1.11014712236364    1.61330070729451
C         2.38258931881662    1.81308733900489    1.56571254517632
H         2.94286327311310    1.05787622006731    1.05344070191057
C         2.86127663275435    3.02861706029506    2.07765817359781
C         4.23994954603267    3.50700205767870    2.06216556333231
C         5.28608295465767    2.62755262369741    2.33941657207812
H         5.07138589109005    1.58657591129776    2.53810798682417
C         6.58947510815290    3.08339727497056    2.38919492991757
H         7.38857924651730    2.39115613324358    2.61596441666896
C         6.88598430017087    4.42214417489428    2.16069499217509
C         5.84301279670151    5.28777474336897    1.85299449438052
H         6.05232555257273    6.32900139413769    1.65555613723358
C         4.53774569958928    4.83988476560572    1.79715060059631
H         3.74399608981314    5.52279429911941    1.54287945320253
C         8.30005703372898    4.91637997053087    2.21602626921950
H         8.91174304783689    4.28155038659619    2.85306985368674
H         8.33904328549298    5.93730678891504    2.58964765023051
H         8.73606627008722    4.91017138949032    1.21670764599457
C        -1.26828417840151    2.73665792524050    5.39172958531351
H        -2.10223499908997    2.14800602090818    5.06688205660592
C        -0.73545280588052    2.91626629945740    6.64639196249941
H        -1.07614259665475    2.50165119667205    7.57295268352869
C         0.34171368613009    3.79686614568825    6.45556820122487
C         1.25485282319328    4.25805885934942    7.50037546162410
C         1.74462540641893    3.33489499391249    8.42310747280085
H         1.45023938858908    2.29744189181444    8.34803677105157
C         2.61767860714679    3.72875065338119    9.41899547334366
H         2.99321584746442    2.99670382907073   10.12052212710637
C         3.02292008226934    5.05390458705595    9.52765739073545
C         2.51553039336839    5.97534535003675    8.61893201634366
H         2.80919184717185    7.01258734129401    8.69343965403876
C         1.64160316446223    5.58922956795005    7.62077035533014
H         1.24891735288778    6.32069921789624    6.93463516461229
C         3.96576415031411    5.48429979884093   10.61050085646749
H         3.40391140516600    5.86030650681656   11.46593612224316
H         4.61667426544842    6.28359802742675   10.26230745051866
H         4.57752020094249    4.65128183276458   10.94949253267287
C         3.29362559234296    5.25689490254465    4.90260653110456
C         3.78780051673378    3.89910138225540    5.35890319884223
H         4.17593876335602    3.37508082059177    4.48244516504295
H         2.99550959735442    3.29323832746929    5.79020280278450
C         4.91271955595906    4.21689240879830    6.34730105150801
H         4.52760643062156    4.22883522506631    7.36671802465522
H         5.73908567899563    3.51312766880618    6.28615185920969
C         5.32222983835704    5.62023474836949    5.91167093430235
H         5.57677579671154    6.28750445984973    6.73613521584080
H         6.14607333354563    5.60306295903868    5.18902473996704

