33
CSD_code = ZECVOU | q = 0 | S = 0 | Stoichiometry = C13H12FeO7 | MND = 7
Fe        8.16694776784620   -0.00908489728087    2.39195434454736
O         6.53031064454001    0.89058196578200    0.13518419345929
O        10.19792907302766   -1.41850420132675    0.86450867239246
O        10.00549931094811    2.23881340269972    2.52194252964304
O         4.81888171481086    1.14099975713366    2.61157110732415
O         2.76555003457632    0.36314324789904    3.04746255423397
O         4.24035489022389    1.47932647271022    5.17883799679107
O         4.42667811463418   -0.72456405100854    5.56436464434149
C         7.14352352899595    0.53958650834147    1.03064045828921
C         9.40407737632160   -0.88553299440300    1.49438262946090
C         9.29009398322387    1.34507637341194    2.51010551185866
C         6.78375898062562    0.68625246432464    3.85750850521605
C         7.67686511619023   -0.23886150131648    4.48712208094336
C         7.72698317364504   -1.50503860081709    3.89335953133396
C         6.85399273779158   -1.66410656124805    2.77232668078507
C         5.41770372077326   -1.21265467810744    2.95719535118250
H         4.90750508047312   -1.89550972264969    3.64501324792879
H         4.88490850778880   -1.23303213007904    2.00579610778680
C         5.37564231276411    0.20266950519057    3.54024109038136
C         3.49140658161240    1.11252834778642    2.44853463669857
C         3.05433781480080    2.14003917914465    1.44319652065266
H         2.07232708155347    1.88299176688251    1.05802176795956
H         3.78235544263863    2.20571621061560    0.64004187415138
H         3.00020644676646    3.10719409716010    1.93938056096077
C         4.59429048997965    0.23583828784277    4.86403946851047
C         3.49518878184293    1.63084148129758    6.38122475218934
H         2.47762498737294    1.26624593921601    6.23009585612775
H         3.49090012910688    2.69465392935030    6.60526643550508
H         3.96242780085226    1.06298431513861    7.18792849838345
H         6.76972899514784    1.70131391196529    4.24856851486237
H         8.30148632465091    0.03535512499542    5.32887502031369
H         8.40280338105374   -2.27898902263115    4.23647802750904
H         6.92210967342054   -2.60987392802023    2.23963082827631

