49
CSD_code = ZECVIM | q = 0 | S = 0 | Stoichiometry = C16H29Cl2NZr | MND = 8
Zr        0.13204377347039    5.01476513458074    3.96180259481011
Cl       -0.15003888838715    2.68958496320737    3.90998119872645
Cl        2.42292290866203    4.91942267223036    4.36312470550722
N        -0.50641211272638    5.89260747170802    5.61788446220750
C        -1.11315231105345    6.60911508825933    2.63236723225554
C         0.26420791028475    6.85206130797045    2.35251432589707
C         0.78055935354361    5.71380978104230    1.66625808136101
C        -0.26546996282366    4.77033950126454    1.51984392616535
C        -1.43084701149829    5.30724565020729    2.13580840355686
C        -2.11988614527765    7.58680971113439    3.17955273734333
C         1.05454496429423    8.11101245680985    2.58967081144430
C         2.16649824905442    5.60336822529159    1.09579148243317
C        -0.17797633018521    3.47677687538147    0.75910399056890
C        -2.78727549222253    4.65387598167909    2.15540370180699
C        -1.18986158898594    5.06540881763152    6.60078941399174
C        -2.44101266001072    4.47668867375219    5.92319119781948
C        -0.29820123547083    3.91782213266232    7.13420486280427
C         0.20494359380972    7.06806500987998    6.10211173485938
C        -0.74271997809452    8.13808444688730    6.67912681359421
C         1.31158598319785    6.75809034843635    7.12675247130249
H        -2.91151566975325    7.75855777153202    2.44671890200568
H        -1.65052359663446    8.54520177287081    3.39272138567624
H        -2.58136222070126    7.21686930365981    4.09859662218545
H         1.32593976839268    8.57047369074462    1.63629162510817
H         1.98233673168717    7.89287425530015    3.12744333146537
H         0.48374726089267    8.84047945719253    3.16216877306367
H         2.22615064660462    6.11969578072180    0.13406360842539
H         2.43925408708407    4.56041971745500    0.93579045003862
H         2.90221540699093    6.05147956033513    1.76539395711696
H        -0.18382521121065    3.66909305245771   -0.31650358160433
H        -1.02135921626553    2.82999598158972    0.99385032398891
H         0.74077165546604    2.93772361300188    0.99893605281580
H        -3.22435306647301    4.64614758221987    1.15409931350607
H        -3.46721356372096    5.19010454304586    2.81587574711810
H        -2.71628433685875    3.61718266854298    2.49582816558687
H        -1.51966531224250    5.67579801579047    7.45623213860941
H        -3.07324623323317    5.28336260543693    5.54927999030405
H        -3.01914305104422    3.88628120157018    6.63133796629431
H        -2.13996745405894    3.83358061177286    5.08765302857528
H         0.38497839448984    4.27256206774153    7.90187716868083
H         0.29531377013928    3.49676313208587    6.31331292334877
H        -0.91372982630931    3.12972840438712    7.56407827879416
H         0.69543866203018    7.50229367590662    5.21224427964763
H        -1.15826574272027    7.81653319271931    7.63108399320530
H        -1.56070514603534    8.32981277971544    5.98946692191692
H        -0.19698432978907    9.06348762228111    6.84414652846247
H         1.92138404702724    7.64445170863303    7.28721472506507
H         1.95068565371976    5.95906279601373    6.75179319979784
H         0.88297487321695    6.46432918509522    8.08232003225731

