34
CSD_code = ZECVEI | q = 0 | S = 0 | Stoichiometry = C11H19Cl2NZr | MND = 8
Zr        1.37349547891314    0.26754407871852    7.87552703358915
Cl        2.95939096638718   -1.39362967745619    7.44146111722663
Cl        2.98461953174979    1.82781788689455    8.48291392747043
N         0.61908459631917    0.66445706254272    6.08479179105022
C         0.56024578998504    0.47325560275909   10.24327320810447
C        -0.56802191304659    0.56800029875674    9.39441765746641
C        -0.72784752888681   -0.68057082308913    8.73866792986950
C         0.30210135497401   -1.53866940807550    9.19016650907182
C         1.09629316552084   -0.82411703650720   10.11464391656988
C         1.43362983026088    0.17224934667547    4.97262891697082
C         0.68353957283452    0.10568135934556    3.63201005366959
C         2.73558000479640    0.98980482400525    4.83551664484818
C        -0.05733297156742    1.94043778590957    5.86291307473048
C         0.41688099393052    3.01362145610157    6.86474265964738
C        -1.57934669059675    1.75119626899825    5.98167843564074
H         0.88831842763456    1.23045121647592   10.94690110333636
H        -1.28673359969289    1.37980757946140    9.39749720099076
H        -1.57122151261472   -0.97629675469702    8.12563052228377
H         0.40638564694700   -2.58945282656551    8.94439378671335
H         1.92303573923839   -1.23115488556325   10.68583528662542
H         1.70465008983492   -0.86764441718750    5.22947425068191
H         0.51886766942378    1.09204614589429    3.20566699472649
H        -0.27782556280031   -0.38304136381891    3.77311581303987
H         1.26614971593903   -0.47429554409081    2.92146595758137
H         3.38301796663056    0.54444562860996    4.08325540482711
H         3.26562914346809    0.99985183499786    5.79683918563955
H         2.51595990399516    2.01543611776750    4.53878532902620
H         0.15484430391662    2.31794710780922    4.85328945374388
H         1.48272681377121    3.21332310012263    6.72967379318371
H         0.24570273846013    2.68042181255146    7.89933283158339
H        -0.13142042091216    3.94143179155400    6.70328954871892
H        -1.91536603082101    1.00542136155798    5.26518929867542
H        -2.09899581591384    2.68511954364293    5.77992238625642
H        -1.83763739808706    1.40950352590132    6.98298897644274

