67
CSD_code = ZEDCAO | q = 0 | S = 0 | Stoichiometry = C32H28Br2N4Ni | MND = 4
Ni       19.24597025833376   13.61973144549022    7.89562182109565
Br       19.62519452975294   14.70586188376295    9.79400936053834
Br       20.34979682029274   15.15282153611985    6.72982937357407
N        16.56738291235519   11.25657717649942   10.02736238905285
C        17.59247902338514   12.11529617718143    9.91086001617147
H        18.23722892858839   12.37974748358771   10.72613782062025
N        17.67907299189734   12.59803606552535    8.69536150017631
C        16.65598677154991   12.04417581366361    7.97788673763310
C        15.95195194578588   11.18865446714829    8.80154246905804
C        16.18197557582118   10.59054285597742   11.23907256942794
H        15.11352884831951   10.37808563584389   11.21859047481099
H        16.40728651194915   11.23441773438116   12.08861160941240
H        16.73256698295789    9.65397979531011   11.35489517269752
C        16.43904566664058   12.38536191672035    6.57842185157778
C        16.70091599718603   13.68580583503141    6.14519827442097
H        17.02377051867919   14.43894527717412    6.86081581981595
C        16.53074553496558   14.02737944118673    4.81659773600248
H        16.74048839988643   15.03525438097119    4.49137479412433
C        16.09533919085938   13.07673919054675    3.90746786352956
H        15.95752566017788   13.34432460529953    2.86982546734872
C        15.83430892134863   11.78286031981692    4.33162366056272
H        15.48999277163832   11.04090138186309    3.62405106091345
C        16.00898300679944   11.43315238594073    5.65743257403193
H        15.82401845961242   10.41980786857560    5.98440295409904
C        14.76774800704792   10.38531519812104    8.52292139421413
C        13.67131405744815   10.96353249293590    7.88489761214004
H        13.70864305212094   12.00718921599433    7.60972424082595
C        12.54581332138300   10.20917384095303    7.61465239937742
H        11.69972787224067   10.66704666934519    7.12449508047053
C        12.49873479560171    8.87195887830609    7.97569817568191
H        11.61718330375543    8.28513276258207    7.76587838524905
C        13.58751709976456    8.28849115764044    8.60132074840884
H        13.55880083586432    7.24430909242921    8.87611198144084
C        14.71705351951847    9.03817473476884    8.87464116630152
H        15.57349851777034    8.57393949604162    9.34122043639077
N        19.26418156382100   11.28608579658714    4.45211596298939
C        19.38296066582829   12.43775332659418    5.13123694241376
H        19.43751947234657   13.39921337982269    4.65905131246057
N        19.45056343190562   12.22874663381039    6.42341566943699
C        19.38774265782155   10.87564415016152    6.60739361146470
C        19.25958037904162   10.26816185098462    5.37418087884831
C        19.20715966579387   11.17174755085192    3.02234957115200
H        19.81349510771300   11.95867254063950    2.57497252682047
H        18.17901694562948   11.27982038028282    2.66903615674684
H        19.59153852964589   10.19961487023938    2.71553235267051
C        19.46462279677004   10.28788141708011    7.93819628473389
C        20.28181862708718   10.88410711498912    8.89961401317301
H        20.88096640741639   11.75296995085038    8.63578730106950
C        20.34992417221551   10.36448267458231   10.17867094890015
H        20.98352654387216   10.83518639745181   10.91525256303020
C        19.60654568109601    9.24351537697781   10.51132428606681
H        19.66540552704549    8.83242253648256   11.50872007997629
C        18.79182264706879    8.64748561657294    9.56108865539898
H        18.21516288308133    7.76912069315052    9.81747696341784
C        18.71406336753049    9.16622465639766    8.28217848971012
H        18.06392119873660    8.71295354116407    7.54742912292994
C        19.17634810942646    8.85345409462299    5.03239731888404
C        20.08240356948113    7.95089705685727    5.58776626999391
H        20.84691855903012    8.31389296682011    6.25861523808599
C        20.00513168762041    6.60686316390994    5.27752239639430
H        20.71333851665364    5.91612540863339    5.71006796714479
C        19.02712713879550    6.14591527643501    4.41037161298701
H        18.96985260898220    5.09546711594255    4.16797350463431
C        18.12110355381087    7.03557376740225    3.85841114974037
H        17.35287519452433    6.68006617965366    3.18750200917046
C        18.19213804102237    8.38208249261070    4.16622922429599
H        17.46713413789118    9.06842780875044    3.75396462404561

