41
CSD_code = ZEDGIY | q = 1 | S = 0 | Stoichiometry = C10H22CoN4O4(1+) | MND = 6
Co        1.96304497627644   -0.00279112968102    2.29098874887878
O         0.90342667265761    0.33469722252159    0.79425954616881
O        -0.67336924580775    1.09151026610060   -0.51379142656259
O         3.13885603873476   -0.35082650782158    3.69555717559917
O         4.00220001977965   -1.09705750793711    5.55776381696145
N         1.13193398903860    1.40089103932222    3.36518233915180
N         0.59096930167182   -1.22562098242130    2.95424611449924
N         2.87853177782175   -1.40608098574790    1.19413406323125
N         3.37503766154481    1.20893268573185    1.55163151153026
C         0.59112442694687    2.55585011913836    2.61909571460319
C        -0.46844030614436    2.19865356731377    1.58520102830671
C        -0.06486938395075    1.14620991706450    0.52722069489775
C         1.07310319737944   -2.38009958853583    3.74020102713818
C         1.87858763403513   -2.00823705862391    4.97804369523665
C         3.10889680697055   -1.10159298513449    4.74588980658565
C         0.15554567926177    0.78657960302621    4.29284229189624
C        -0.46461251170382   -0.44481180976425    3.63822853838216
C         3.76257871997974   -0.73973407108136    0.22337747488729
C         4.45135445611323    0.38110500758239    0.98234546814628
H         1.88557764712514    1.76970806278170    3.94907916377790
H         0.15691316239218   -1.61659772458168    2.11534124772893
H         2.25638706638225   -2.03361881076664    0.68510959955514
H         3.46150511418065   -1.96845902092409    1.81770940772202
H         2.96160070444663    1.75495377333925    0.79277650526570
H         3.78756945339041    1.85571453079218    2.22351064741541
H         0.15795763298565    3.26767917687596    3.33319445275355
H         1.42367671984274    3.05852072325814    2.12083570035414
H        -1.38578422695823    1.84788608473867    2.06064700683323
H        -0.73904025799776    3.10041107366649    1.03406608877840
H         0.20987223885673   -2.98181880464142    4.05173285935454
H         1.68722134249333   -3.00418666913299    3.08636477031601
H         1.25266038608071   -1.52193263216261    5.72800298262417
H         2.25255586451125   -2.92231090839811    5.44138335254178
H        -1.19943238771921   -0.14009591307242    2.89198840544784
H        -0.97353138767038   -1.05593819560574    4.38952043856637
H         0.68561898638643    0.49827207678598    5.20148519897671
H        -0.62487573747165    1.50343814996548    4.56487425943471
H         4.48621334380866   -1.43549892521127   -0.21074318442971
H         3.13965241478543   -0.32510473774806   -0.57286572466342
H         5.10949513906106    0.96299567988219    0.33086921044039
H         5.03538687048244   -0.03019379089368    1.80919998166788

