41
CSD_code = ZEDGOE | q = 1 | S = 0 | Stoichiometry = C10H22CoN4O4(1+) | MND = 6
Co       11.03744215126752   13.56241945430410    1.10835122986905
O         9.96626276180667   15.04016407136724    1.49072147001245
O         8.61899175355686   16.39264123157485    2.53006514483464
O         9.72739710872380   12.73024966127836    0.10145315800859
O         8.71537601394702   11.59595611314737   -1.45345559733594
N        10.35371953758892   12.53708633585606    2.61652103555183
N        12.24795188191084   11.97887882270055    0.78840976731203
N        12.47680769875222   14.65645532526324    2.07937402708501
N        11.54246632072395   14.67074261057993   -0.46694603623944
C         9.72812668878605   13.24171938570582    3.74336583478983
C         8.57513205955959   14.10385271352586    3.24550195191290
C         9.05239476151928   15.27649872332321    2.37688962816214
C        12.34605571805482   11.49001708269320   -0.60131002621554
C        11.00743532445217   11.05955436601961   -1.19797988656124
C         9.72791509416133   11.85945385396870   -0.85368861055981
C        11.34280376210651   11.52796916756329    3.00781732213024
C        11.85637772796505   10.89937928097317    1.71848598270314
C        13.29586173414417   15.34035955523021    1.05907210606398
C        12.33850197294552   15.82697698243018   -0.02246979916262
H         9.58148604916640   12.04696803487049    2.14754209890669
H        13.19045957114532   12.26776688962578    1.05418752675637
H        13.08619770898104   14.27119468604043    2.80003560453692
H        11.91257875627234   15.38005875672957    2.53267791164601
H        10.63447498124023   15.00156831895153   -0.80113845329848
H        11.99076230876402   14.21474723902137   -1.26104009966138
H        10.47701236279808   13.85584501535463    4.25256801503159
H         9.34761849407995   12.50600020354367    4.46298123979599
H         7.88834754627266   13.50746093591602    2.64072132632549
H         8.01878473233440   14.51883492475950    4.08504132188085
H        13.03445355059739   10.63552580449309   -0.63878083689650
H        12.78753776105703   12.28587456640829   -1.20492291187106
H        11.08632010261003   11.06421759290594   -2.28570391234075
H        10.77519817279718   10.02719539556941   -0.92604015312167
H        10.89849434596845   10.76300426677309    3.65448608577050
H        12.15224200826838   12.01170344357524    3.56287155985618
H        12.69139900491520   10.21867868417508    1.91140832934592
H        14.01511084792909   14.63061758559928    0.63999811215911
H        13.85121335158282   16.18155171419623    1.48484277320024
H        11.65661474849645   16.56141826492797    0.41047888326245
H        11.04670907227070   10.33008962248751    1.25907234778327
H        12.88306445048060   16.29040331657112   -0.84876547142882

