95
CSD_code = ZEDSAF | q = 0 | S = 0 | Stoichiometry = C44H45NPSe3Tc | MND = 5
Tc       10.80402594318318    5.88522896176910    4.51206148203451
Se        9.75892647743999    4.66443928005028    6.28994447279602
Se       12.97691656849584    6.84429621953438    4.83305069205617
Se        9.67041374893893    6.15534778457979    2.41812583597309
P        11.80874010786847    3.86491714580904    3.72073730727502
N         9.99097196282667    7.51936252007967    5.15887781457460
C        13.40747078124337    4.05328465243470    2.87019514052583
C         8.36500982825014    6.62664661723851    7.93355212500663
C         8.24052179764639    5.71405354206208    6.88434444055228
C        10.84153982347778    2.90395678584639    2.51368145084768
C        13.44838874893356    5.00169709216474    1.84986025938971
H        12.54264324175233    5.54238337203828    1.60109703183193
C         9.66281034612919    6.79968870202072    8.65570945622340
H        10.07822313006053    5.82614219132871    8.91813408527433
H        10.38312640464064    7.31270857393607    8.01672128179351
H         9.53119263431014    7.38491435668681    9.56263627986823
C        12.78506589507097    8.26916395482105    6.13485866374775
C        12.18490921559274    2.62504963542748    4.99982805075508
C        12.88029361244769    7.93923104720696    7.49072929230788
C        12.69656590368503    8.94052827463939    8.43461868385204
H        12.76044198463629    8.69298486063313    9.48479548034908
C         9.22081494514011    8.03499280036016    2.25402873252903
C         9.50805145505529    8.49494612106835    5.54418262382072
C        10.17587271960609    8.89510435680247    1.70226690845758
C        11.34715114488827    2.43770778140155    1.30650939102974
H        12.37856936329541    2.62232546218410    1.04136993032948
C        14.55447904380174    3.33869034232380    3.19105344131355
H        14.53192713344961    2.59903139636232    3.97873323943075
C        15.76481864708395    4.52347188955300    1.48579366509388
H        16.68600279240108    4.70801806519734    0.95277551139866
C        13.17627602241756    6.53874855152074    7.92864523172374
H        13.24256128880311    6.47563536097974    9.01194893252848
H        12.39513279812037    5.85384421840024    7.58754478008788
H        14.12151844244590    6.20721651131955    7.49600056044037
C        12.55282219261480    9.58533700360787    5.73147195464903
C        14.62044073280687    5.23431043072400    1.15826698847634
H        14.64570113174436    5.97065550179264    0.36825384798489
C         7.01823323102733    5.53519030960564    6.22838313746725
C        11.48661397261888    8.37677889108186    1.19866363489776
H        12.05560635469017    7.91454220006600    2.01001350835155
H        11.31677073395201    7.61548575583564    0.43568027747635
H        12.08362329815622    9.17836103585255    0.77102355003196
C         7.26019236008400    7.38778745729940    8.29002290646546
H         7.35079604432091    8.09983980488066    9.09911593242192
C         7.98318959703157    8.51771683200692    2.68314617178591
C         9.51037992858465    2.65763527800460    2.84475080189401
H         9.13145576871018    3.01663707148673    3.79455692260763
C        12.43518671791156   10.24184598932021    8.04879118708986
H        12.29086110494663   11.00996748025111    8.79483930237154
C         5.93545780322340    6.31426054751605    6.61294798597464
H         4.98899618523903    6.18809226242162    6.10660603456471
C        11.74070109431349    1.30927613597315    4.96778489367760
H        11.15658301006189    0.95275213794322    4.13128918559783
C        12.93656643708745    3.07303279843598    6.08469525922545
H        13.28432873382076    4.09958761128270    6.09304568141714
C        15.72819214419870    3.57823614714231    2.49670631465197
H        16.62041999652266    3.02379294680656    2.74959063053107
C         9.20089659670520    1.49587687482384    0.77498284468409
H         8.56351609251025    0.95224619152065    0.09308059797708
C        10.52344857773795    1.73612855839303    0.44273316193006
H        10.91782378549215    1.37725906168703   -0.49716230757741
C         8.69399049061256    1.95409404458868    1.98140370633615
H         7.66293694199578    1.76623414844262    2.24387133272187
C         8.90803540502300    9.70278499871168    6.02512951116499
H         8.02506020495211    9.45812384424675    6.61718319679775
H         8.61770086589397   10.32640535391020    5.17848211452102
H         9.62508360181168   10.24181503876604    6.64589438577760
C         6.05300967179429    7.24124307592805    7.63158022233902
H         5.20188449591362    7.84148863437855    7.91914400899072
C        12.37222013005160   10.55904597201901    6.70435771234154
H        12.18712635874414   11.57999976641654    6.39888314608742
C         7.72997887851964    9.87951451637126    2.59071456421720
H         6.77501635426180   10.26099149941297    2.92587140706406
C         9.88621646194332   10.25061189165995    1.62518305415476
H        10.62030022856215   10.92334792267490    1.20493632986686
C        12.05003912162321    0.45505787133780    6.01279211762862
H        11.70144324242039   -0.56743634739470    5.98740484033385
C         6.94881576658873    7.59779199516762    3.24877662175729
H         6.84223270791024    6.71835762093355    2.61288588821544
H         7.24686292570495    7.26192366820879    4.24316117922321
H         5.98531495988244    8.09539412625234    3.32933746396888
C         6.86800515112529    4.52691095060988    5.13236588782442
H         7.15124391171622    3.53794344949164    5.49626193211823
H         5.84231615489135    4.49135841753935    4.77386343059989
H         7.52174607833180    4.77285523226146    4.29102673157246
C        13.24482583861223    2.21631140918334    7.12257462548223
H        13.82823100205356    2.56941711224559    7.96045556095690
C        12.48575134003379    9.94909903654356    4.28260420558716
H        13.32238167004735    9.50148743243260    3.74509664316148
H        11.56133711326424    9.57271981444227    3.84219788891218
H        12.51517344158651   11.02778131020933    4.14867617660033
C         8.67546806505427   10.74535335506197    2.07246780248738
H         8.46460464347164   11.80303241852667    2.00713662543755
C        12.79733149113300    0.90432439512004    7.08805374015528
H        13.02943770544739    0.23312528090446    7.90193326408822

