67
CSD_code = ZEDXIP | q = 0 | S = 0 | Stoichiometry = C33H16BF15HfO | MND = 14
Hf        0.18254252874678   -2.01443472389883   10.32260400690891
O        -0.51397394101264   -4.09796423631340    8.17446496296848
C        -0.87494343791538   -3.37624595301242    9.06123157920594
C         2.22093035051779   -0.93261795182491    9.45423638713393
H         3.24362289922795   -1.12691590885227    9.74570245404241
C         1.55886965678219   -1.51218204928097    8.35116651308503
H         1.97967383655274   -2.23228987701342    7.66321945046242
C         0.33137578382295   -0.82412821881232    8.16903765292033
H        -0.33039847446224   -0.93911664721409    7.32277479011497
C         0.23128825258481    0.16572427316210    9.17219294777578
H        -0.50281967153354    0.95813760153677    9.20141119747139
C         1.39185647163308    0.08916838134464    9.98208448929338
H         1.68806788167167    0.82004127746835   10.72250479993515
C         0.46838917968775   -2.27976187006134   12.72234917612593
H         0.13960456631030   -1.62252796894762   13.51672998519249
C         1.77162481331195   -2.30162595630641   12.16290297635138
H         2.58296342211887   -1.64508348926698   12.44541970609285
C         1.88395857971690   -3.45510004229717   11.35252170863911
H         2.79384874077827   -3.82558315843398   10.90059229679493
C         0.66107519035899   -4.16533469919929   11.42912585534249
H         0.47705956919704   -5.15666197922897   11.04026735790012
C        -0.20846373096346   -3.44528307096122   12.28154736457502
H        -1.14971153163025   -3.81512417182652   12.66374472369774
C        -2.11209133434381   -1.14962649285392   10.79254650759523
H        -2.15366044244987   -1.70315909862911   11.72945506104501
H        -2.26769404873875   -0.08081455140598   10.90644379413506
C        -2.58229373507828   -1.76052749652790    9.65723029328417
H        -2.89254488749183   -1.16744165547421    8.80166624042701
C        -2.41793097103617   -3.20285930268762    9.44950441890078
H        -2.43801319303683   -3.71511372847376   10.42038585222073
C        -3.37437882800279   -3.89717677427028    8.49231668188130
H        -2.84922848470003   -4.72663216365061    8.02469944166682
H        -3.65536973214467   -3.21246380023621    7.69350717957110
B        -4.72129849315033   -4.43091135939571    9.29851970737796
C        -5.11847011460968   -3.18236357850678   10.27464835289925
C        -4.94824801264348   -3.16848945006166   11.65360545138045
F        -4.48015736761257   -4.25989913672028   12.29702638532101
C        -5.15256762893497   -2.04203520180641   12.44396846000686
F        -4.91026945181626   -2.09158015363307   13.76372593678448
C        -5.55050418979376   -0.84926301994530   11.85818117324867
F        -5.71454427875770    0.25359154349731   12.59987351005565
C        -5.71580147000431   -0.80955099590521   10.48016990295598
F        -6.03282650204831    0.34653829834593    9.88056552596928
C        -5.48528534706596   -1.95290184209043    9.72591912378698
F        -5.58996697313839   -1.82346913410122    8.39403784491801
C        -4.47608561370432   -5.81780777570209   10.14855801784057
C        -3.26434975875795   -6.44402427197082   10.41680554749933
F        -2.08488295694780   -5.88817379758725   10.05375472953362
C        -3.15015136706166   -7.64728590184565   11.10546022190835
F        -1.93227566127186   -8.16365081416778   11.33581343003982
C        -4.28431791020010   -8.29800869623359   11.56335162492595
F        -4.19028219714303   -9.45572374452624   12.22523460557895
C        -5.51916872667796   -7.70688968193800   11.32952551819743
F        -6.63603085174866   -8.29822363276902   11.76958914054453
C        -5.58824945167248   -6.50016281183255   10.64423143370207
F        -6.81421820888479   -5.97821118538222   10.48538631178573
C        -5.88334468524984   -4.78892766899849    8.20401534311359
C        -7.18614661222527   -4.30016329954668    8.20231617397740
F        -7.60703643089918   -3.46562519575467    9.16557474181784
C        -8.12952635096260   -4.65159817956254    7.24158504207497
F        -9.36287096339999   -4.13235767620506    7.28869632528207
C        -7.79466625935357   -5.54555615523140    6.23428453433018
F        -8.68897344596533   -5.88948676439514    5.30065291208053
C        -6.51610281490682   -6.08694740660467    6.22207035186798
F        -6.17071295158975   -6.97227879599088    5.27635887484446
C        -5.60160916294368   -5.70712683722951    7.19622601862493
F        -4.39039306724311   -6.29251017279930    7.14977987292663

