31
CSD_code = ZEDXAH | q = 0 | S = 0 | Stoichiometry = C11H11MoN3O5 | MND = 7
Mo        2.51156563135801    0.25499097065013    0.23241362092032
O         1.15290445838711    0.65879976411395    1.05871404404353
O         3.93655176656653    1.07248949015087    1.08609939822389
O         3.68908950081447   -0.18798987736040    1.57750331644075
O         2.55499840100228    1.35084991680573   -1.25748941393871
O         1.90590556883957    0.16464518566889   -1.50266922341676
N         2.01358076529991   -1.83285832477351    0.26279109906814
N         4.22730741065849   -0.87037863959609   -0.84550650138158
N         5.40700915488090   -0.60886706209318   -1.35408122726191
C         0.87526482543254   -2.24784591704915    0.80938150189204
C         0.51295371421961   -3.58379738076442    0.84895798261461
C         1.36877929430512   -4.52855513565169    0.29791783866173
C         2.55279396596681   -4.10001409842825   -0.27142080539841
C         2.85102108413672   -2.73656007592484   -0.27579340870775
C         4.07039773954520   -2.19677639184349   -0.84131599828707
C         5.21713816955101   -2.79672442883853   -1.39206982365143
C         6.04335152722679   -1.73949420287204   -1.70574821431161
C         5.85401350013651    0.75299301829989   -1.53470353354559
C         5.80519000162941    1.12141212491223   -2.99575582788613
C         4.75145207476201    1.69705349517668   -3.54220704367419
H         0.25294469216237   -1.46458909354125    1.22390501304579
H        -0.41986528925583   -3.87562128992925    1.30313573835926
H         1.11679978649153   -5.57808574441611    0.31283944271680
H         3.24522440496030   -4.79939484006489   -0.71163283912168
H         5.41687894602373   -3.83874325621435   -1.53124664760945
H         7.02254493169951   -1.72969266063193   -2.14053848911395
H         5.17260309637110    1.38738533623040   -0.95416053414863
H         6.86962283842364    0.84305564388308   -1.13959123276605
H         6.67632501180418    0.85682952932309   -3.58157730625378
H         3.87990874505987    1.94048372740314   -2.95232846120118
H         4.71794428154039    1.93700021737729   -4.59152246430938

