93
CSD_code = ZEDXAJ | q = 0 | S = 0 | Stoichiometry = C49H37CoF3O2P | MND = 8
C        -2.43948047704028   10.27986853194182    4.78067730056650
H        -3.42387830256715   10.42418746765048    5.19567679331245
C        -1.22249959874508   10.77662492729744    5.29929110661769
H        -1.09421780497397   11.38561327011492    6.17998966803348
C        -0.20295802383444   10.50959837259115    4.34983621136435
H         0.80547016294325   10.88909522883090    4.40467971948743
C        -0.80429092734106    9.88010444721849    3.23166465627495
H        -0.32243286570431    9.67466829873301    2.28938168888152
C        -2.17547064297075    9.73762872190763    3.50278315879787
H        -2.92483458983740    9.37230838951420    2.81645740327598
C         0.77439070093379    7.89448049282817    5.06176743927824
C         1.28978112256505    7.82739701234009    6.30090536420423
C         0.37560098177671    8.16928697022048    7.37869830864966
C        -0.87613515241974    8.50410657313796    6.98144858008044
C         0.79148985845362    8.12202989107315    8.78375663528089
C         1.59641362075893    7.09613628913282    9.29755629739259
C         2.09845393012983    5.93468543847607    8.51475439948469
C         2.68566090416597    7.33813289007500    6.60056224727744
H         3.16770668105226    7.05330399723732    5.65699145162408
C         3.56767841066844    8.38127202800092    7.28620773549322
H         3.10438944255745    8.79232693859856    8.17780713621288
H         3.75199870117473    9.19108126324664    6.58501261050264
H         4.51894022862399    7.92910557065423    7.55873607525292
C         1.90888892116300    7.07548048648672   10.65601945674912
H         2.50236576583973    6.25478582401110   11.03028665830040
C         1.47994375843070    8.07911634839076   11.50012356973798
H         1.74202955071589    8.05693161171427   12.54692682342616
C         0.71037483370128    9.11441919487058   10.99068603983185
H         0.37440034348349    9.91027725811226   11.63897451493184
C         0.36843989447770    9.12817141936118    9.65438422510283
H        -0.23040784499313    9.93493969105701    9.26071007199175
C        -1.99326951514577    8.55878918812770    7.92078777212917
C        -2.87598060024684    9.63512334082871    8.04360343245023
H        -2.73292125477231   10.51918506879070    7.44494373851307
C        -3.92398109439448    9.60084847133545    8.94416968560548
H        -4.58714591257546   10.45096615851636    9.02232079234444
C        -4.12783550899834    8.48897018645461    9.74343713451032
H        -4.95357139061811    8.46097497634932   10.43877528029769
C        -3.25360642006360    7.41835462249868    9.64841674594719
H        -3.38989194805637    6.54886203256412   10.27472887610643
C        -2.20117913093702    7.45246419741263    8.75701577557657
H        -1.52162388567075    6.61655276723048    8.70232698296039
C         1.45640411492724    7.39516296513058    3.87125900153498
C         1.98230283610900    8.23165778112077    2.88341313110151
H         1.95223959321227    9.30065507348761    3.01927136465372
C         2.55130635853221    7.71283140318178    1.73896692478660
H         2.94572528147497    8.36982103351671    0.97794954196809
C         2.62298164963243    6.33586532133841    1.56584148143823
C         2.15702835333279    5.48369579561087    2.55899318386809
H         2.24172243830068    4.41493541783290    2.43717741699498
C         1.58703893471105    6.01148234270035    3.69727962078432
H         1.23206839937514    5.34417543262503    4.46671363229750
C         3.16244651742423    5.77884011619851    0.28552330100166
C        -1.48737774109722    5.77812166070689    3.36764801525476
C        -1.17700354013146    6.43352613810313    2.17892933949343
H        -1.24029064040186    7.50995182932797    2.13735292628569
C        -0.78579592150425    5.72002845791733    1.06247298956240
H        -0.54139098886781    6.23667377191915    0.14640072115891
C        -0.69339653112454    4.33894313019612    1.12326051381339
H        -0.37423518480051    3.78214599498634    0.25534646393735
C        -1.00815067672544    3.67916020380536    2.29925486805413
H        -0.94219537484616    2.60225322914143    2.34917050982032
C        -1.40602309963195    4.39076972610017    3.41793065035691
H        -1.64819705567945    3.86571565586625    4.33025773119101
C        -3.77244023229506    7.05629049349361    4.47325716429701
C        -4.38727024839721    6.70367754410051    3.27849553169736
H        -3.82254120888891    6.20698147673635    2.50247574518683
C        -5.72832321784194    6.98881085390768    3.08061249537343
H        -6.20053089211043    6.71263053125776    2.14913846365020
C        -6.46180814802786    7.62444459916122    4.06755588772562
H        -7.50627901510444    7.84637156320887    3.90658834633109
C        -5.85237455476884    7.97640962292254    5.26246460460463
H        -6.42049746495583    8.47031607477272    6.03720161083726
C        -4.51433132607930    7.69885359645660    5.46340091435616
H        -4.03180420773148    7.97200892839315    6.39157555753324
C        -2.04647223958378    5.53260264500841    6.13106378440075
C        -0.83322397575144    5.10176115589721    6.66442687685629
H         0.08419394420455    5.54246446662976    6.30455238460262
C        -0.80069468252750    4.13533791034249    7.65245016214974
H         0.14526577003375    3.81839916192981    8.06479599663771
C        -1.98639971020648    3.59451719486342    8.12572551011932
H        -1.96444803245333    2.84644728323502    8.90382492154714
C        -3.19559308616027    4.01673091596578    7.60088964577409
H        -4.12146088238849    3.59603191578386    7.96539472134207
C        -3.23040842646428    4.97865103103095    6.60574170146462
H        -4.18164496917469    5.29196403694896    6.20197331821137
O         2.62685805096503    6.08984536892217    7.29677781686391
O         2.07770687573788    4.81839031934836    8.97980432641559
F         2.21231795099743    5.72419991816882   -0.67812679127659
F         3.63317974325082    4.52857698148097    0.40303073895125
F         4.16006300377177    6.51500714872449   -0.23281890476308
P        -1.99818739239367    6.78381262278121    4.80565522876699
Co       -0.99366406960634    8.71399630278697    5.04787934711815

