77
CSD_code = ZEFCUK | q = 0 | S = 0 | Stoichiometry = C24H44NiS8 | MND = 4
C         1.95121340816655   -0.72750489224682   10.71172197824644
C         0.33487732961715   -2.42417421190843    9.22925697205654
C        -0.56490463337464   -3.64864026824857    9.22379401178652
C        -0.96168935976822   -4.08742888501012    7.80902686981853
C        -1.81167785683351   -3.03044787928468    7.10837513793962
C        -1.72230362965956   -5.41005295982147    7.88135123513917
C         2.63651268389522   -0.21284753250485   11.79724214126128
C         3.73378932146260   -0.20181291613996   14.36621006559245
C         5.10016700467415   -0.77671425275809   14.02742262567846
C         5.21168745033806   -2.28930098276750   14.24668130127781
C         6.49601892928572   -2.80756564374183   13.60356701643368
C         5.18630813486305   -2.64865455069365   15.73004351803984
S         2.11953425479974    0.00399464225048    9.17587512244840
S         3.66163500115868    1.13785760887314   11.58401298814422
S         0.93117905825401   -2.12786807040705   10.93218901789454
S         2.39505676170258   -0.94020728135960   13.36829666819041
Ni        3.50956112410370    1.61633979383957    9.49435400921577
H         1.21320100900077   -2.57129384398669    8.59985997969141
H        -0.19066972475760   -1.52444414568849    8.91308986745602
H        -0.03688732209416   -4.47014021469185    9.71369436588692
H        -1.46433918238786   -3.43915761643243    9.80654005539219
H        -0.04676616545293   -4.24320735524816    7.22627995333071
H        -2.13614015930385   -3.39487317785735    6.13642695477453
H        -2.69582825968336   -2.80213095732144    7.69988913450583
H        -1.25021736138028   -2.11306192501185    6.95303104549220
H        -1.98633501104830   -5.75266187575606    6.88376638281244
H        -1.11758163647471   -6.17795195292113    8.35821297646700
H        -2.63806151892836   -5.28842558526030    8.45582623882428
H         3.44721806832477   -0.41311906792061   15.39479673600062
H         3.70518881371042    0.87399778468946   14.19595731213586
H         5.84287815860530   -0.26242592632749   14.64257264901123
H         5.32541958660290   -0.54954674032763   12.98322568821846
H         4.35842112926593   -2.77157331178538   13.75662212837513
H         6.58080842653379   -3.88349807564535   13.73566269828399
H         7.36516375086427   -2.33615397466467   14.05807649444185
H         6.50708689056524   -2.59250138830417   12.53740875860054
H         5.30028506095192   -3.72269947192163   15.85735047849645
H         6.00115086233077   -2.15319243440856   16.25467602329814
H         4.24677799454819   -2.35566740140357   16.19150938260864
C         5.06913541878592    3.95961745937777    8.27717798226873
C         6.68558808248345    5.65683152847794    9.75957444386030
C         7.58532620256875    6.88131335027084    9.76476790298269
C         7.98208033544124    7.32029173208312   11.17946911540198
C         8.83219066973024    6.26343915667443   11.88016723228271
C         8.74254801457633    8.64297021300696   11.10676132545322
C         4.38394470305619    3.44509679454239    7.19152573301854
C         3.28698060979119    3.43342391284158    4.62299408216215
C         1.92035700726292    4.00811380587631    4.96118166526001
C         1.80864657312131    5.52064825743495    4.74161422531900
C         0.52417037043048    6.03882274905045    5.38450591817722
C         1.83415993734261    5.87978935453161    3.25820361904196
S         4.90033558640315    3.22809636794066    9.81298933276079
S         3.35870852484561    2.09447138399120    7.40452194301360
S         6.08912116509051    5.36004568221557    8.05682260541426
S         4.62573226493965    4.17239260750241    5.62050949067020
H         5.80723753389912    5.80397217411477   10.38891369565571
H         7.21114792589486    4.75714284121233   10.07580693070754
H         7.05720198769101    7.70267759147651    9.27475842349605
H         8.48471516470884    6.67173153245996    9.18198269124070
H         7.06716643193964    7.47607061685777   11.76223550840182
H         9.15664093467279    6.62803831367168   12.85204769206395
H         9.71635457918798    6.03517293415790   11.28865297649178
H         8.27085470544652    5.34599635464532   12.03564917839330
H         9.00661389384621    8.98572972632219   12.10428101191708
H         8.13772066214743    9.41074235815675   10.62981703162750
H         9.65828089401866    8.52131525017209   10.53224586976536
H         3.57364762810420    3.64456020886479    3.59441278653666
H         3.31568695967689    2.35762798503045    4.79340812342402
H         1.17777684853743    3.49359121463343    4.34603737822481
H         1.69504309423476    3.78112384662693    6.00539559573612
H         2.66176522146462    6.00315594066390    5.23170320734460
H         0.43923862398405    7.11472341284796    5.25222647003903
H        -0.34484702635325    5.56719986692222    4.92996451720819
H         0.51301598089002    5.82393162240649    6.45070172750589
H         1.72008682819820    6.95380486062874    3.13071856856786
H         1.01941559277948    5.38415589245290    2.73357627295549
H         2.77377167668782    5.58682803996600    2.79688174233614

