101
CSD_code = ZEFCOE | q = 0 | S = 0 | Stoichiometry = C32H60NiS8 | MND = 4
S         1.47131724060756   -2.05546340310261    8.17433562042138
S        -0.79622468436411    0.01523374640290    8.24705405300831
S         2.23984927076798   -1.33486094971034   10.98870127437847
S        -0.05508493763600    0.73231211768361   11.08299772000971
C         1.22227641057567   -1.12229470655786    9.58485494091279
C         3.30883821756055   -2.71953559518347   10.45691439353318
C         4.22191794060650   -3.12951754048255   11.59911249153162
C         5.10644684969827   -4.30739346616105   11.19491097229492
C         6.02755064922380   -4.74056337846948   12.33266370964716
C         6.90713327031028   -5.92352726025214   11.93577618085397
C         7.82632835093416   -6.36355780979894   13.07254152327989
C         8.69950249058308   -7.54535040091104   12.66937679655743
C         0.20047087760346   -0.19072123872712    9.61925638070683
C        -1.50558415805370    1.75651554336767   10.66738356843583
C        -1.14294247895644    2.98272311733238    9.84625201866992
C        -2.39390053278300    3.78652612556999    9.49806115588616
C        -2.06044777025502    5.02450292518092    8.66960188588124
C        -3.31100015606750    5.82504894170028    8.31478960703845
C        -2.98477129171089    7.06637989843165    7.48797416675047
C        -4.23825487239901    7.85771653367259    7.13540620243473
Ni       -0.04772196308083   -1.39146396985662    6.80572089308623
H         2.65300793472627   -3.53771460823638   10.15818812959639
H         3.87764510601814   -2.38165912719021    9.59042670029374
H         3.61563260524137   -3.40526791653470   12.46440079642360
H         4.84592085536910   -2.28118634591948   11.88727009073996
H         4.47471928705703   -5.14860277619771   10.90070938353671
H         5.70826429696017   -4.02705169963341   10.32752036759280
H         5.42392276462253   -5.01463982497833   13.20091928256846
H         6.66145759762991   -3.90008783846591   12.62421139954981
H         6.27217563448420   -6.76257994365855   11.64145943370718
H         7.51276614171159   -5.64856578149826   11.06896867753589
H         7.22099868885983   -6.63848239970218   13.93932901159646
H         8.46245171600353   -5.52560728699519   13.36658275346711
H         9.34478138951614   -7.84380746219001   13.49218952280611
H         8.08305059499155   -8.39715976458831   12.39016365003022
H         9.32594230983952   -7.28418045063651   11.81913931834237
H        -1.92374845553113    2.03945565561687   11.63320588760967
H        -2.21123237130553    1.11678634593755   10.13761945292423
H        -0.44512056687385    3.60400496416603   10.41118276828518
H        -0.64860434278515    2.67087062692772    8.92472073138896
H        -2.89834177105304    4.09044097507075   10.41843857355859
H        -3.08122485454500    3.15082099510128    8.93560137111796
H        -1.37074641480734    5.66021576115872    9.22971968821922
H        -1.55531455459838    4.71705801320282    7.75135597273704
H        -3.81861997903123    6.12815778054270    9.23372756128255
H        -3.99862815423494    5.18868095817099    7.75271574405244
H        -2.29921485986632    7.70421117126712    8.05056354615779
H        -2.47605057172131    6.76390746763877    6.56984886811721
H        -3.98451831398390    8.73634644623134    6.54691743308183
H        -4.74900353026416    8.18535651226826    8.03837330389239
H        -4.92647118784225    7.24439714710290    6.55764068127303
S        -1.56791986646108   -0.72864625959851    5.43784577748998
S         0.69977791822070   -2.79934946886341    5.36505869604637
S        -2.33603881237905   -1.44883492449792    2.62329055082126
S        -0.04098562545173   -3.51587946643435    2.52891847565126
C        -1.31863436568433   -1.66160533906101    4.02724157415937
C        -3.40505898296584   -0.06419471191430    3.15511628689463
C        -4.31819237384933    0.34578551187817    2.01295852556247
C        -5.20277788397790    1.52359819213460    2.41722873893559
C        -6.12388008587080    1.95681012486673    1.27948974604187
C        -7.00344762731758    3.13978359470642    1.67638692668992
C        -7.92269815285305    3.57976230199052    0.53964489330843
C        -8.79589110798497    4.76154586418707    0.94279621763029
C        -0.29678451289161   -2.59314076029878    3.99279360765544
C         1.40957112078600   -4.54000130732550    2.94455934811118
C         1.04702608417342   -5.76632189753228    3.76556553531703
C         2.29806328444417   -6.56996990196486    4.11383490571901
C         1.96473430638506   -7.80808878209624    4.94213279616952
C         3.21540314597625   -8.60843359006301    5.29698994869691
C         2.88935094056392   -9.84993667540228    6.12361585759479
C         4.14299338724117  -10.64096856532810    6.47630595048797
H        -2.74923631485709    0.75399328187634    3.45383246810962
H        -3.97383271847980   -0.40209396610454    4.02161681314407
H        -3.71194773145099    0.62160583805366    1.14766421695889
H        -4.94215763753253   -0.50256756901432    1.72478297290081
H        -4.57108828298692    2.36481185232198    2.71149886764753
H        -5.80459793577807    1.24317150695450    3.28458989051140
H        -5.52025021471423    2.23088983731866    0.41123655923252
H        -6.75780280046418    1.11635071165677    0.98793060561500
H        -6.36847944528546    3.97885019577094    1.97064000250442
H        -7.60903587280804    2.86485103417401    2.54323487971432
H        -7.31740888723421    3.85467137560346   -0.32717611919278
H        -8.55881258686320    2.74178598379395    0.24565782806486
H        -9.44122294829718    5.05993407352297    0.11999950374660
H        -8.17945620556043    5.61339331743951    1.22193012578782
H        -9.42227938417480    4.50040056511260    1.79307929861126
H         1.82781018359105   -4.82282434331055    1.97873524499311
H         2.11514128462831   -3.90025838615856    3.47441110413002
H         0.34935145098785   -6.38766742415490    3.20052354865639
H         0.55254968930357   -5.45459629586694    4.68706457367364
H         2.80266731774301   -6.87371080195824    3.19348927948186
H         2.98521578528192   -5.93420819243804    4.67644003995835
H         1.27520582317404   -8.44386774105691    4.38187778045173
H         1.45944978220142   -7.50082594720176    5.86035594563859
H         3.72318590511859   -8.91132264245190    4.37806935524144
H         3.90283864790010   -7.97199319270969    5.85921748231858
H         2.20406178182571  -10.48789171418757    5.56084127250923
H         2.38039470272891   -9.54769984049280    7.04168833631530
H         3.88939861474066  -11.51975226436906    7.06462551133970
H         4.65400383210490  -10.96833703899186    5.57338797097526
H         4.83092765730420  -10.02753297661409    7.05428462515586

