38
CSD_code = ZEFMEF | q = 0 | S = 0 | Stoichiometry = C17H15Cl2N2PPd | MND = 4
Pd        7.35930047313748    4.75210422694411   15.32307709965438
P         9.51631323319959    4.36363615948694   14.91922614585601
N         7.63992970566324    3.41105272237791   16.89286281504080
N         9.86128537592370    3.28481065700362   16.19781599201598
H        10.74175718793689    2.78764211990324   16.25619922669890
C         8.86294298295304    2.87771291834023   17.05054471621396
C         9.12540368487869    1.95272159161048   18.06543319617650
H        10.11540449076699    1.53341772439167   18.16020356288393
C         8.11208012230808    1.59515164178212   18.93028906993343
H         8.29838697112066    0.88364016110764   19.71996740254928
C         6.85595610070120    2.16583182863360   18.76601160288380
H         6.03876965476349    1.91605851761372   19.42146010646689
C         6.66574233633901    3.06424861902121   17.73530718063536
H         5.70297509843906    3.52825194693462   17.54703525495285
C         9.62971555472447    3.28072862666637   13.45279147952309
C        10.83981718893947    2.90104864805865   12.88210112755957
H        11.76835289476401    3.29021053827248   13.27761520590061
C        10.84813833073129    2.03893045935758   11.80009235429216
H        11.78702212280682    1.74707653673005   11.35303692660318
C         9.65517269301422    1.55525727571858   11.28674738720502
H         9.66716262151265    0.88826427108700   10.43774689145286
C         8.44719489148414    1.92988576187880   11.85451346938316
H         7.51927653365553    1.55703550151798   11.44824777962156
C         8.43180209005959    2.78978867770100   12.93775745429586
H         7.48018216262235    3.10833366012036   13.38503624337690
C        11.00769510558233    5.37766676371334   14.80351490775098
C        11.95706838277116    5.47674872516384   15.81361382729004
H        11.84544601805000    4.90472504430785   16.72441179144763
C        13.04173419391362    6.32132482125697   15.65186608591190
H        13.78567436039834    6.39407845840318   16.43164123079828
C        13.17021403133181    7.07795790854826   14.49865166471397
H        14.01735231613147    7.73686612185572   14.38039226072867
C        12.20653231894233    7.00318072499131   13.50361330672151
H        12.29867663133115    7.60844914282440   12.61456258899826
C        11.12381679288246    6.15910058093151   13.65484699105544
H        10.34933683238844    6.10017580107658   12.90111674441770
Cl        5.13125826314280    4.85597106748065   15.60271857162365
Cl        7.24731025057440    6.20791404699945   13.63823033730031

