25
CSD_code = ZEFPOT | q = 0 | S = 0 | Stoichiometry = C5H13ClN2O2PtS | MND = 4
Pt        1.40173872709723    1.92845096760458    0.41192881702550
Cl        3.34708977429006    1.27210458890236   -0.48675028991972
S         2.26318392421951    1.33922259951739    2.40664601210905
O        -1.24151392942557    3.53975927259015   -2.20516302724730
O         1.32364136385053    1.61215983616885    3.49376160178404
N         0.55653752649944    2.50484583629884   -1.27908179516431
N        -0.46313984651032    2.51327394498584    1.14267019377444
C        -0.60096826939700    3.16856197508219   -1.23984932672644
C        -1.06995468856812    3.48439530449731    0.21038457921064
C        -2.58921174207721    3.49606716893172    0.29952045489376
C         3.84837707973905    2.11858932865583    2.83143497332341
C         2.78777661970518   -0.39603157307033    2.54336429771037
H         0.90103877485314    2.32246147904493   -2.21912154123138
H        -1.04053858924390    1.66964804157114    1.15636283479082
H        -0.42520821049421    2.86502412664219    2.09965166963834
H        -0.67496893258998    4.47845807793725    0.44776583556908
H        -2.92838307135511    3.86745712300782    1.26428033229129
H        -2.97864507562019    4.13497484499164   -0.48816459573362
H        -2.98451710600261    2.49434109149450    0.14069534679938
H         3.69362261774016    3.19138233639360    2.87795877159331
H         4.54802356174385    1.87388972845032    2.04041697240140
H         4.18056519945747    1.74728204607664    3.79374143046731
H         1.91362276502456   -1.02342951080152    2.40492439940295
H         3.50814464772353   -0.57425330033086    1.75319786305655
H         3.21578687933900   -0.56443533464494    3.52442419018042

