65
CSD_code = ZEFWUF | q = 0 | S = 0 | Stoichiometry = C32H30ClPRu | MND = 9
Ru        7.79283034116016    4.10956668780148    5.58814775849976
Cl        9.73416317639492    5.35427839963126    5.07948888800849
P         6.86446322164714    5.65376850652029    6.97302741409283
C         6.93636087569102    7.47386323029139    6.88722460043418
C         8.05529941814632    8.05783862323086    6.30125468890724
H         8.81389580596919    7.42248828801565    5.86365213091112
C         8.18855880871901    9.43494408706969    6.28694172751864
H         9.05699061308436    9.88373128362879    5.82835724107082
C         7.21416176099256   10.23465877378792    6.86076445583794
H         7.31772024761747   11.30994729872604    6.84902307459435
C         6.10525471272780    9.65481945349725    7.45599755707298
H         5.34756314313594   10.27719317152830    7.91065144683933
C         5.96328500387248    8.27937319458962    7.47442577256337
H         5.09518868887062    7.83443595656443    7.94106165794427
C         5.09137088526048    5.33143631197320    7.22600266109193
C         4.67913317928668    4.39838522035568    8.17207800439037
H         5.41778469905894    3.93456611106435    8.81226577288917
C         3.33959423156263    4.07260668924889    8.28822103224222
H         3.02236425154710    3.35322711259497    9.02948551701070
C         2.40478960939746    4.66435282144093    7.45356733816390
H         1.35963186861574    4.40762675578736    7.54464283843271
C         2.81131634495478    5.58458555196828    6.49989985023276
H         2.08213876078731    6.04377858883416    5.84772731382032
C         4.14899100331506    5.91459084862576    6.38254861891022
H         4.47491386687420    6.63721012807686    5.64537328968793
C         7.60435920477303    5.33309915752181    8.59860025252718
C         7.32706754052858    5.99545246544452    9.76942514196010
H         6.60236044333486    6.79720599650851    9.79136735429173
C         7.99669709498944    5.62232651901059   10.94235412033637
H         7.77009372824229    6.13711579605150   11.86496856581992
C         8.93467133819710    4.62427750079410   10.92427137033457
H         9.45418329229575    4.34989021675363   11.83191534942146
C         9.25863598441457    3.94449597931862    9.73206139178411
C         8.56958514315253    4.30090873546742    8.54428852668582
C         8.84545823286796    3.66983220997909    7.30307868491554
C         9.84779535958231    2.73152448365677    7.28479138767716
H        10.15598344883233    2.26892688456322    6.35493748506705
C        10.53587754135592    2.36326589669494    8.45440725384211
H        11.31196940004832    1.61309363212273    8.38673817087200
C        10.24552909981201    2.94107923067325    9.65803399072895
H        10.77734749961664    2.65583359763373   10.55433235889420
C         7.03829410439716    4.01340342768879    3.38866122914782
C         8.11268734937534    3.09905897462932    3.55924325403965
H         8.95096904142634    3.14239845140579    2.86880847456780
C         8.07527600659098    2.08926602862215    4.52652611365572
H         8.85707140922947    1.33838145161132    4.55747956079725
C         6.98058708843684    1.99979330057480    5.43015095765289
C         5.90799419519508    2.89720813271337    5.26220335253261
H         5.00777078955972    2.77480611870746    5.85680980728945
C         5.93851888035579    3.88695236498359    4.24695419916514
H         5.06087166070105    4.50741271211129    4.10425367031246
C         6.90690624909780    0.88018516126694    6.42544190458252
H         7.87204739716922    0.72913150249804    6.90688168676453
H         6.62754339265007   -0.04708575936720    5.92185612744845
H         6.16630409821194    1.09406217509514    7.19346914607511
C         7.07408461173934    5.04550613180781    2.28647378824357
H         8.05015724006885    4.97896367609703    1.79238390733855
C         5.98670023508762    4.75967755203961    1.24667896928827
H         6.09517996440777    3.75440485130176    0.84257634035203
H         6.06288603763656    5.46973695227149    0.42657318186579
H         4.99488315146992    4.84907226134785    1.68558010456928
C         6.93827953960709    6.45720968180907    2.86121292489404
H         5.96042821072224    6.60432856289253    3.31569301591951
H         7.06571481362715    7.19722493186574    2.07488868756434
H         7.70456566248833    6.61969995898319    3.61869753960218

