53
CSD_code = ZEFXOA | q = 0 | S = 0 | Stoichiometry = C17H31Cl2OPRu | MND = 9
Ru        7.95696496617110   10.91181385005674    1.92227240369097
P         5.81191167879408   10.64096567238461    2.67831769757536
O         5.99205777832975    9.58520332357035    3.89106657107990
Cl        6.92913146632498   11.57494777519312   -0.08764458531920
Cl        8.00008549685824   13.17906544734049    2.51921653984003
C         8.70720477288915    8.71451040877514    1.86991354459925
H         8.19359607230041    7.76314541802976    1.79374750189816
C         9.18325482504606    9.34627654273087    0.71365941566350
C         9.95994376774761   10.53135294422336    0.86227867914097
H        10.38297059505048   10.99931412104428   -0.02034967369232
C        10.23498725066661   11.04671938505466    2.12805226337099
H        10.87345188576764   11.91998326683912    2.22395846247203
C         9.72356515886577   10.43529604275983    3.30543887606793
C         8.94860233104066    9.27208910800329    3.15136222349468
H         8.60249992125559    8.73408396609373    4.02513822384610
C        10.10338081367179   10.96876142932214    4.66554195882384
H        10.50815242807953   11.97790096640208    4.53111900688385
C         8.88991584891017   11.07208692091556    5.58821395035818
H         8.09985289921674   11.62294672473039    5.08102480735482
H         9.15812159250947   11.60166556931688    6.49903611018285
H         8.51442780157114   10.08850705208862    5.86105570721249
C        11.19371678899823   10.08144659685433    5.27523050615746
H        10.82526292507485    9.06801563315054    5.42307905431128
H        11.50166449970845   10.48038521388986    6.23862318768905
H        12.06556757127220   10.03928233028470    4.62485840941716
C         8.94524597331079    8.78772741422427   -0.65505622963371
H         9.88444678250316    8.71021220146393   -1.20187447517062
H         8.28873589583064    9.46170570404890   -1.21113375266496
H         8.47859093352418    7.80601912978848   -0.60653094339617
C         4.65433894323780    9.83347599630156    1.44332400214465
H         4.59892863619651   10.54515336811609    0.61469985511656
C         3.24559528658174    9.52372187055754    1.94039278481161
H         2.68054614950200    9.07048163254615    1.12664580948349
H         2.71255049045244   10.41962997483084    2.24685606901320
H         3.25993694391407    8.81716694011747    2.76685660271561
C         5.33638231659091    8.56970290597013    0.93252323199349
H         5.53449637040161    7.87942315352406    1.75237697514837
H         6.27374329665371    8.83927757877274    0.45072499584121
H         4.70789453997748    8.06693550908660    0.19985982555562
C         5.02341773254362    9.14616132241826    4.83835930043875
H         4.14963746547780    9.79378637446015    4.87505858878611
H         5.50533330200532    9.14434445466402    5.81806847124562
H         4.71179483255163    8.12775614166951    4.59640614056007
C         4.76012680706527   12.02031742623178    3.35571751056394
H         3.79596468022601   11.57746040180366    3.64007259326216
C         5.40075847782548   12.64259140360955    4.59118560216299
H         6.32518627830862   13.14042632922266    4.30933901214792
H         5.61681719892936   11.89047479663216    5.34814928800237
H         4.72823990805407   13.38224570079126    5.02252338963093
C         4.53838820002898   13.05863789792292    2.26185957999869
H         3.98919696378914   13.90910537241450    2.66109687993997
H         3.97929880903796   12.64444936492588    1.42634846239485
H         5.49901564937328   13.41174392476611    1.89153958777529

