51
CSD_code = ZEGGEX | q = 0 | S = 0 | Stoichiometry = C17H22CoN7O4 | MND = 6
Co        2.57827084226226    3.04592426951213    5.01711502717419
N         3.57008655263956    4.65023307155867    4.98551730865110
N         1.93760937922437    3.76830621100082    6.63654867494036
N         1.54705190886315    1.46303873782259    5.01298562461165
N         3.28413240633731    2.28120591349329    3.44146378459269
O         4.42570794846121    5.03169906525028    3.99932874922439
O         1.11671862775119    3.12934793464951    7.40045318281018
O         0.59993375142192    1.14351874958848    5.93336571996219
O         4.24730125974902    2.81829271252569    2.77567449574884
C         3.38225911532719    5.43253925312072    5.99632028993975
C         2.45551477962337    4.91288878696019    6.96939024423193
C         1.78370750406732    0.64903870729292    4.03721998354187
C         2.81040971527002    1.10572070265454    3.13978006414019
C         4.01703213191294    6.77099046229470    6.13495105956765
C         2.09031066736080    5.64595063456514    8.21727054798101
C         1.07547222718793   -0.64951177526409    3.84615796225610
C         3.28870770828861    0.30515283788525    1.97137449826890
N         4.08161610049004    2.10666827865764    6.08186526856608
C         3.80709209740830    1.44594382432802    7.20708688711312
C         4.77274669846792    0.81107809683451    7.96448057166114
C         6.09914822487496    0.86060299528630    7.53451157580919
C         7.12676348311950    0.22369056915737    8.27286762935950
N         7.95702132325271   -0.29274163406404    8.86868673639056
C         6.38739931221208    1.55183964528185    6.35734023891618
C         5.34966855909582    2.15451224008877    5.67241706945269
C         1.04008328168652    3.97019349364344    4.04979193710250
C         0.90910789763973    5.31585850745288    4.49756999537853
N         0.77709959035029    6.40996805953229    4.82373348669461
C         1.10849690749143    3.96944263747651    2.52003632982775
H         4.43972257336894    4.22563376427794    3.35221110084916
H         0.65122066855590    1.92051654916683    6.62806588330172
H         3.26476637906670    7.53017491301377    5.92178396029029
H         4.38734177303758    6.92544212220506    7.14523140115234
H         4.82827811633051    6.87252363032076    5.41889612985282
H         1.63874121400352    6.60279475828088    7.96135291415479
H         1.37118465014940    5.04943146343872    8.77416370510384
H         2.96606496421092    5.82733723571681    8.83877802961159
H         0.51952382805797   -0.63665256092816    2.90988743078714
H         1.79143511193703   -1.46823623512264    3.80185012811672
H         0.38434746576372   -0.81455437607460    4.66844210659209
H         3.74903093087155   -0.62609311062980    2.29981071208220
H         2.46241236152528    0.06218235344786    1.30532623141759
H         4.02569688532536    0.89282198660684    1.42811130954233
H         2.77563394538554    1.42814323801958    7.53281368073999
H         4.50378633386184    0.28929181945179    8.86924621175861
H         7.39830601720141    1.61563504215080    5.98693967289316
H         5.55342832699692    2.68319296843548    4.75086376072589
H         0.13105085510696    3.44263190049233    4.37009951314316
H         1.04220045232823    2.95830238986443    2.12574391509656
H         0.27033031194863    4.54390390128264    2.11947917759439
H         2.02652683312934    4.43078325799627    2.16219808127649

