74
CSD_code = ZEGJUQ | q = 1 | S = 0 | Stoichiometry = C24H47FeP2(1+) | MND = 7
Fe        4.07840663305914    1.02891217499781    3.89698766914321
P         5.68856949866441    1.99090033765351    2.72645437187929
P         3.55951770649820    3.06992318940182    4.58000849128711
C         3.98835506270059   -1.09852394943972    3.84698684462014
C         2.93229492846583   -0.59738855276249    4.68467444483072
C         2.08184308250312    0.20178226007670    3.88524633186841
C         2.61124207343886    0.20515929037796    2.55603736885297
C         3.74591580534949   -0.66427280781659    2.52423180026450
C         5.00780177455141   -2.08739739326744    4.30163663680401
C         2.67922558044428   -1.09438325232074    6.06944611933708
C         0.74334163026900    0.73184426195688    4.27254134639252
C         1.90992782446303    0.70216026858510    1.33982493095003
C         4.33125218526882   -1.23120232063003    1.27661030551909
C         6.07388426718212    3.65381136165380    3.47829857989916
C         4.82182031263990    4.32451953202108    4.03813187423846
C         5.37680963228975    2.44273806781089    0.94214089336892
C         4.14441160652051    3.34252335837469    0.88857143586174
C         6.54503939391049    3.08168046019273    0.19662196680252
C         7.40239047900727    1.24656128452560    2.71708445625859
C         7.50690612773271    0.05877203494411    1.76839008887238
C         7.75815744527515    0.78490164119687    4.12844330079052
C         4.02775670033305    2.83057117865754    6.37439415329945
C         2.85077758782560    2.32588856789972    7.19946872487306
C         5.15501163396971    1.79280080126525    6.36423435446172
C         2.00228529121535    4.09357330030500    4.65974564867021
C         1.46739808607192    4.37192146702790    3.25801983292261
C         2.17520376152663    5.39712519852913    5.43528840344816
H         4.58189027264115   -3.09165950971848    4.29084621054000
H         5.88226497883361   -2.08729424339843    3.65689108349342
H         5.32796934684988   -1.87665287033157    5.32002405144844
H         1.78115889284806   -0.65715499112415    6.49551300472998
H         2.53910544574172   -2.17549562560069    6.03574697655361
H         3.51690668083824   -0.89784849437774    6.73683324083003
H         0.48032704990638    1.60848572300165    3.68976651225445
H        -0.00871977750758   -0.03452745768339    4.07867345080540
H         0.69446438077626    0.98600997706767    5.32738837031741
H         1.31540318339772    1.58705985639983    1.54640366078484
H         2.61310005797149    0.92493805456921    0.54368838282898
H         1.23074418248958   -0.07234354134409    0.97897542871566
H         3.54593456889938   -1.77299782848376    0.74847874090423
H         4.70623994145221   -0.46699813936845    0.60302998633162
H         5.13039741257852   -1.93172102000592    1.49355503421452
H         6.80176529773681    3.49047614424042    4.27583653552706
H         6.55737097538809    4.29212007766630    2.73571498836823
H         4.34833551328748    4.93430521570167    3.26699936867139
H         5.07296493187016    4.98338658763230    4.87365071209069
H         5.13113132958846    1.49540137263042    0.45188876082781
H         4.41950652124112    4.37511755866504    1.08622371519669
H         3.68487040085069    3.30941859474866   -0.09653094813318
H         3.41406237410300    3.02159808725103    1.63034603259056
H         7.41198859677258    2.42945662596918    0.14864990740868
H         6.23430515758728    3.29842580785515   -0.82393604871813
H         6.84615148804383    4.02194509966875    0.65234845814734
H         8.09745243129884    2.03404521930586    2.40223508432451
H         6.89061492203269   -0.75739597691641    2.13054386416131
H         7.19711370552027    0.30537212277713    0.75727887341319
H         8.53740565433381   -0.28877559808250    1.72716604546639
H         6.97055223759482    0.14329682012538    4.52228732710073
H         8.68401883529564    0.21430929712382    4.10917008109792
H         7.90703332629728    1.61973567742872    4.80809760837879
H         4.40256735881709    3.76441997507009    6.80873032825605
H         2.09147494891495    3.09213607620460    7.32804348312363
H         2.40165501372745    1.46328750911544    6.71778543437219
H         3.18946489568878    2.02735691135536    8.18991336154408
H         4.87057105588748    0.91374675261005    5.76330263084144
H         6.06873153240960    2.21669021614846    5.95924536334983
H         5.36904849283812    1.44588167162028    7.37376054245459
H         1.27738886580124    3.46003828364877    5.18214974682836
H         0.48026668708438    4.82483958423033    3.32115172571622
H         2.11264958201148    5.05964189137286    2.71683172129660
H         1.38534523026875    3.45373479496030    2.68161321906007
H         2.58106350416705    5.23043622928176    6.42934668879774
H         2.82632097986033    6.08647081095266    4.90407725422253
H         1.20537542480920    5.87827890880548    5.54664362393873

