109
CSD_code = ZEGMIJ | q = 0 | S = 0 | Stoichiometry = C54H48Br2N4Ni | MND = 6
Br        7.76385070789467    0.00192346907614    2.66654427832963
Ni        6.95226688068145    0.00014418755981    4.86223049027503
C        10.18483493794715    0.21161378610795    6.49735941811199
C         9.31697892380944    0.93551927091630    8.77355746500311
H         9.26975668649765    0.46965277112204    9.75456658189802
H         8.31392087899398    0.95317463898475    8.35810172792673
H         9.64872154407899    1.96604321801329    8.90786962165301
C        11.12392043516078   -0.19962624057333    4.22686193661888
H        10.09096422912297   -0.34118275046531    3.89154262288202
N         6.79414493353969    1.84370069783105    4.78008991039395
C        11.15965119146706   -0.43348691545291    5.71809228487910
C        10.27659978720730    0.19243669276347    7.89423679261787
C        12.23353446280654   -1.23797427105949    7.72411597137115
N         9.10237593354309    0.80404051514808    5.83589454161975
C        12.16628787244640   -1.14816135701406    6.33907799478977
H        12.91607615953976   -1.63831231713187    5.73585045314094
C         8.92415549152100    2.06164644733455    5.86966928230053
H         9.62512092153486    2.74644898588206    6.35035264836370
C        11.29463106332732   -0.55174491094875    8.47649151739704
H        11.35324959436079   -0.58523615844373    9.55520858013472
C        11.49140117400022    1.23832437489531    3.92162445967360
C         6.51650108939420    4.60288859780339    4.58710095168012
H         6.40849648330916    5.67366034958715    4.50936475474405
C        11.98067357339009   -1.17935178490461    3.46467410083408
C         5.52758602565483    3.74987704202370    4.11910269345575
H         4.62296135974397    4.12703096973697    3.67029807320945
C         5.71238120414001    2.38371082973405    4.22962522894169
H         4.95630613034979    1.70735306123137    3.85134793473671
C         7.64344800917210    4.04519256629742    5.15685283319595
H         8.44520443488698    4.66095179191963    5.53363878199598
C         7.75668917506849    2.65831674748827    5.24682034355454
C        12.31762720561599    1.97771284946924    4.75937146878836
H        12.72809472240585    1.52380459294710    5.65104519734026
C        14.08354277048162   -1.85128511539924    2.50619801564487
H        15.12051434588314   -1.63671631916913    2.29093019253092
C        13.31548736740594   -0.91983201980955    3.18241121831625
H        13.75481505112956    0.01800623059360    3.49072235221560
C        13.52767499461279   -3.05408279089667    2.10572611856545
H        14.12803133594068   -3.78008725966902    1.57710267251737
C        13.32885993545557   -2.02630743333861    8.37506817448234
H        13.12925955027399   -2.17103324013304    9.43388055589784
H        14.27981706638620   -1.50282095393825    8.27321809386048
H        13.43461898304201   -2.99948263677877    7.89868145392865
C        11.42952472339702   -2.38723675288990    3.05528818348962
H        10.38802982779976   -2.59387371329690    3.25885706236775
C        10.98623758128508    1.83960589983697    2.77519985093583
H        10.34790559134933    1.27330151707107    2.11447533034662
C        12.19695063940017   -3.31920191176766    2.38104885451554
H        11.75462126194878   -4.25315456075650    2.06522065201284
C        12.09817676582449    3.89312827035822    3.33037415455408
H        12.32946171426961    4.92429075529552    3.10475048465359
C        12.61829730442366    3.29665379292652    4.46570832203660
H        13.26140643200253    3.85940153865854    5.12794357829659
C        11.28478475140171    3.15824477433644    2.48416171371283
H        10.87787939366541    3.61395237498143    1.59327182057885
Br        6.14059216568755   -0.00105112559823    7.05791078310854
C         3.71994558645802   -0.21152352392202    3.22653565968042
C         4.58806164180508   -0.93507606895941    0.95029829551529
H         4.63532341821078   -0.46903736386426   -0.03062615770941
H         5.59108420067764   -0.95269217996179    1.36583300919081
H         4.25645285076547   -1.96561269611515    0.81577032897084
C         2.78056995526166    0.19943103798157    5.49700822852094
H         3.81347053671201    0.34104855482954    5.83248469124472
N         7.11048817529271   -1.84342971195504    4.94423239150712
C         2.74496832366117    0.43337489110425    4.00577842646782
C         3.62827970248694   -0.19223988079280    1.82964916749810
C         1.67112369908280    1.23787108028843    1.99972450770742
N         4.80237701373641   -0.80390978483614    3.88807503824835
C         1.73827745638238    1.14794873243467    3.38475877344035
H         0.98835748243237    1.63794522761539    3.98794707006159
C         4.98086851716552   -2.06146678984836    3.85394097302306
H         4.28017065250962   -2.74626841696655    3.37286733654109
C         2.61019674356610    0.55185405981463    1.24737203565377
H         2.55167057835095    0.58543447789408    0.16865359490549
C         2.41311542721698   -1.23854443356808    5.80215543320117
C         7.38844693307700   -4.60259826287212    5.13692909841569
H         7.49658023302277   -5.67336786148460    5.21452224372071
C         1.92358677499238    1.17908008773159    6.25904776780383
C         8.37701181070932   -3.74952389737773    5.60554655850820
H         9.28146205453498   -4.12658338154494    6.05477612644907
C         8.19207078976556   -2.38336967287691    5.49512023772489
H         8.94785080517861   -1.70697144376643    5.87389535588349
C         6.26166217272960   -4.04498150055234    4.56677754084560
H         5.46017789066978   -4.66081396588813    4.18953209675122
C         6.14823597249846   -2.65810649051350    4.47700653080945
C         1.58684176273180   -1.97787351081776    4.96440192425635
H         1.17639381312256   -1.52392759485377    4.07273738156017
C        -0.17968760999729    1.85109591889280    7.21659041216156
H        -1.21678192783673    1.63660092700639    7.43134502013431
C         0.58862689715969    0.91962458812041    6.54069650271994
H         0.14938051653950   -0.01817211492881    6.23213975943674
C         0.37607105673585    3.05384363072518    7.61737110145318
H        -0.22450538866607    3.77988770244661    8.14569034935230
C         0.57574355114703    2.02613549868681    1.34878286166470
H         0.77509164646879    2.17049046916106    0.28987325072277
H        -0.37526582722885    1.50283258617803    1.45106579972032
H         0.47025643904025    2.99948763965938    1.82487367554254
C         2.47463357929988    2.38688951674390    6.66878786870167
H         3.51623605504576    2.59346840908618    6.46571886822826
C         2.91830244313053   -1.83989128868649    6.94853495971590
H         3.55671819670976   -1.27365068433426    7.60923513092447
C         1.70695085086430    3.31887061653830    7.34271754806065
H         2.14919291795947    4.25278416963541    7.65878408530297
C         1.80619586755211   -3.89332495742876    6.39336622506955
H         1.57481776745691   -4.92446408763895    6.61900049154187
C         1.28609743574312   -3.29680091615898    5.25804807090623
H         0.64292914008227   -3.85949493659203    4.59582563283083
C         2.61968029214109   -3.15851763400603    7.23955437317565
H         3.02659035016120   -3.61427583794596    8.13041576581307

