67
CSD_code = ZEGQOT | q = 0 | S = 0 | Stoichiometry = C19H31B10CoO4S2 | MND = 8
B         6.75303550743470    5.03769273285759    2.78368814262990
H         7.09567174525650    5.86307422478643    2.02322536953953
B         6.85480223972732    3.31076564954278    2.46601526133696
H         7.36317249956148    2.96622172177546    1.46408530463595
B         5.32345065640879    2.55341833549804    2.94527781155604
H         4.86789934785666    1.71031430929476    2.26517514105575
B         4.23886570701181    3.79153633171231    3.58151383499688
H         3.10220200457001    3.87315073563803    3.31279482346839
B         4.98764245264877    4.52392206722280    4.98855878404758
H         4.30326336691417    5.07151369144990    5.76698980078795
B         6.51388690013885    5.28887400144907    4.49887594659841
H         6.80474641950901    6.32547354428422    4.96395730102897
B         7.62219697247262    4.01225835381258    3.90775945091083
H         8.78806301350644    4.09745414692520    4.01999374909660
B         6.74263838014587    2.45894571950706    4.01389260180382
H         7.30415837184778    1.44285785818028    4.19466270271954
B         5.11880987188759    2.76525881814077    4.69851982211707
H         4.55117805127443    1.97912817574367    5.36117151999610
B         6.52965038904466    3.69583455401574    5.28726161549517
H         6.94414923786765    3.55897835199833    6.37788313397763
C         5.36025470904577    4.14202857971706    2.32939209286743
C         5.16072668325844    5.25095167163621    3.44813456220903
C         3.74212175057250    7.08642565550531   -1.19540185422508
C         5.09624931564771    7.31664970984703   -0.75080530740014
C         5.06207098899642    8.25107930584802    0.29421345790934
C         3.68595704767719    8.62953852921219    0.50611543480685
C         2.89799347874678    7.95068875782093   -0.46045187365718
H         1.84602726324872    8.11124556874822   -0.62680843345160
C         3.34020629707370    6.28703281422388   -2.39251618202863
H         2.26977721067090    6.09581976366557   -2.37730313089289
H         3.86401331682423    5.33343286482099   -2.43626612992879
H         3.57892656898112    6.84339311176870   -3.30096122318836
C         6.31291355321122    6.73578073590756   -1.39581089444127
H         6.64111144595745    7.39013445370788   -2.20534887002571
H         6.10240641234753    5.75592835998020   -1.81911878800018
H         7.13192407549699    6.63531269268786   -0.68697550707281
C         6.22273438307907    8.88950806886150    0.98503777084393
H         7.15882602636529    8.40856772202488    0.71328195425259
H         6.10420457406820    8.83601737046961    2.06683811389278
H         6.27875914274076    9.94218185264063    0.70497953755258
C         3.22046328983932    9.73412938883003    1.39094437160042
H         3.38628376827431   10.69124000055730    0.89277938175956
H         3.76517792752505    9.73835678583269    2.33291171902277
H         2.15787967978081    9.62430936213992    1.59236340525317
C         3.60942370793962    3.34416071014007    0.27976883526232
H         4.03101530991652    2.45961722430839   -0.16833602016417
C         2.28466216395966    3.48175310001440    0.46747057817181
C         1.38199366083876    2.35283172216490    0.08626642892857
C         1.19612393137561    0.34145579232023   -1.09158126261596
H         0.87055022071730   -0.22315197355386   -0.21585401512472
H         1.82698714343621   -0.27111178692545   -1.73014156787359
H         0.31405732472235    0.68428445548424   -1.63607645639566
C         1.62506429499764    4.59779461029844    1.09477156898771
H         0.59858707803046    4.37619034529967    1.37307982002552
C         2.12734353061592    5.81878903835780    1.34750535744837
C         1.25550344407556    6.73755445065273    2.12394950336280
C         0.23760535417511    7.02527544854003    4.21552901540668
H         0.82317215737898    7.89033470851757    4.53442007682196
H        -0.00430818115972    6.39633374989660    5.06829945802443
H        -0.67097591052005    7.37459200587826    3.72028833881088
Co        3.79432369183937    6.58178667939341    0.81853206530546
O         1.99178352933801    1.45031368257840   -0.69475605981747
O         0.23174195272670    2.25793479882042    0.42891197812440
O         0.80788189780432    7.79540890874026    1.74838966201004
O         1.00325565481120    6.22016711152989    3.33365494397761
S         4.79343093396626    4.58811793215531    0.64957122166038
S         4.29548506447617    6.77394083516601    3.04371080421486

