59
CSD_code = ZEGRAG | q = 0 | S = 0 | Stoichiometry = C15H27B10CoO2S4 | MND = 8
B         0.46956072688355    3.83021407611319   15.65222955417592
H        -0.05759240644544    4.47817453890603   16.47602326691932
B         0.58595655454445    2.06563672395973   15.67441619935383
H         0.16082491343242    1.47677284801888   16.59884688346894
B         0.25380811572288    1.47672902658603   14.04405535815028
H        -0.41025564292209    0.51853454715698   13.90777686975082
B        -0.05597659502797    2.85343893448538   12.99127747054291
H        -0.93068522357758    2.89582720082509   12.21300407036107
B         1.38946580201564    3.85145730355592   12.93178966424491
H         1.53997485966280    4.57304540403945   12.01733182586009
B         1.70656100590152    4.45638840842658   14.56197308884536
H         2.07765973253799    5.56145214739055   14.70919696790626
B         2.04975685179416    3.07018995428721   15.62828687583711
H         2.77469695996401    3.16482508164929   16.54908857297714
B         1.93115855383270    1.59259005918067   14.61915424057913
H         2.57114959654888    0.63457187455801   14.85013701726384
B         1.52456343430813    2.07855955825619   12.94880238808587
H         1.87436796665272    1.47365746918157   12.00489712633764
B         2.63236237486336    3.07912424653462   13.93191828354920
H         3.77444803622148    3.18490507323615   13.67680542463819
C         0.10954537460432    4.22852465383393   14.01255334688240
C        -0.51898362244590    2.87609341354960   14.65431863293110
C         0.16474614594701    7.46454543479271   16.35793398367044
H         0.90124423684682    6.82702889179563   16.81959595888928
C        -1.23301122128884    7.22500548132910   16.30884094221062
H        -1.74784965085114    6.36043369098257   16.69641983541127
C        -1.85105404774679    8.36510749414142   15.75382085301923
H        -2.91263676877568    8.52017173951622   15.64812529590157
C        -0.84057829910422    9.33529604376703   15.50414559897101
H        -1.00943311992752   10.34715615536384   15.17332132580110
C         0.39545929587471    8.78436454610698   15.88884987250389
H         1.34522801624775    9.29373498028388   15.89003543283360
C        -2.51342472959212    2.89960440602025   16.54221957364151
H        -1.60681935955830    2.89654394658061   17.12311336873895
C        -3.72600109790150    2.91577610262110   17.13396757856857
H        -3.85745534603876    2.93215264655401   18.20156410564737
C        -4.88631383673593    2.90662934357153   16.27535992309575
C        -7.21826838999748    2.92875995858371   16.11579628283121
H        -7.20095235860872    3.76413493055191   15.41233544655140
H        -8.06525583996208    3.01449743875181   16.79172404481724
H        -7.27308333775352    1.99628374036808   15.54950874381073
C         0.17356047569733    8.13448579827049   11.79712455531219
C         0.51324269734108    8.26230730721525   10.34909344522809
H         1.60236249013926    8.34189089580723   10.26447090401085
C        -0.14982312130307    9.48850266839819    9.72754199065981
H         0.09700298301942    9.54777483299167    8.67099863995729
H         0.19178049570374   10.39718882817233   10.21722038975756
H        -1.22995947627806    9.42306616136039    9.83226612150480
C         0.05489574856597    6.97614038087706    9.64794676904987
H         0.53444007807366    6.10741910941749   10.09249365954283
H         0.31460387061309    7.01875182220408    8.59364408286242
H        -1.02246967457097    6.86489250517128    9.74312519708380
Co       -0.48570945985487    7.58201580868824   14.37164935965697
O        -4.79859293371680    2.86882018110169   15.05880326889233
O        -6.05751183765930    2.94400937395777   16.93049341298295
S        -1.08944198945776    5.51256890884786   13.64393673855925
S        -2.34616856651954    2.87268360841857   14.83570447229956
S         1.27713667005277    7.60659607619284   12.94343111866857
S        -1.36675611001823    8.37474621742927   12.41929457847781

