37
CSD_code = ZEGVIQ | q = 0 | S = 0 | Stoichiometry = C17H15CrNO3 | MND = 8
Cr        7.00415838750694    9.33129294832304    5.45373082467096
O         6.91735137187249   11.26127651325564    7.71826700727084
O         4.11564256451488    9.33431874676594    6.17222087404924
N         8.88779587328932    9.33143454633240    4.58688996654793
C         6.98186815198263   10.52406013009002    6.82479719403490
C         5.22868140547956    9.33166745473359    5.84398814718065
C         8.25716431384633   10.47584974403439    4.10299781836243
C         7.17416148045336   10.04438570409115    3.34140935446682
C         8.95054887453054   11.80694897729169    4.17310113262126
C         9.91549332039783   12.06034243663572    2.96310026950988
C        10.39870045372115   10.72092777218245    2.49765015447720
C        11.38747205996808   10.02498479072184    3.18726809491853
C         9.62527951055718   10.02104604695034    1.57528703113444
H         9.84210029662953    9.33152934873799    4.92630977024435
H         6.52141402205581   10.67202936278951    2.75606385440768
H         8.21198074736317   12.60880516466715    4.21377243305860
H         9.52969750801280   11.84395629337091    5.09933109456917
H        10.72928461583584   12.70855738267690    3.28785891323348
H         9.36864124626257   12.56111105949008    2.16383600445592
H        12.08262917291311   10.56308033092321    3.81678764262344
H         8.93874389669648   10.55790666779530    0.93695831582385
C         6.98002509027245    8.13779310189962    6.82424954606252
C         8.25738329640149    8.18691658880166    4.10303263917455
C         7.17436716603617    8.61809499133373    3.34130623102804
C        11.38759958545218    8.63842103862366    3.18729897234974
C         9.62541483152740    8.64192056276971    1.57530676729523
O         6.91399199606211    7.40062845209319    7.71746453383633
C         8.95104364538279    6.85596088291736    4.17319007007667
H         6.52181678858190    7.99031280300319    2.75594565812772
C        10.39896802290730    7.94224163165790    2.49772010397907
H        12.08288464240738    8.10048538539336    3.81682299466976
H         8.93904049061005    8.10489810604426    0.93696331511831
C         9.91607883277569    6.60273054973146    2.96322242809770
H         8.21265915401760    6.05393272712097    4.21387616745492
H         9.53019447576312    6.81912943884709    5.09942897158689
H        10.73002796335591    5.95476588354861    3.28806838977881
H         9.36939474455686    6.10175643435490    2.16397731370204

