97
CSD_code = ZEGXOY | q = 0 | S = 0 | Stoichiometry = C30H46B18P2Ru | MND = 10
Ru        8.46457505478398    9.72079820722282    4.89832565730501
P         7.96469940847707    8.31155975613701    6.65052470403164
B         8.83378471729994   12.16057472569780    8.46630542207986
B         8.59645165399523   11.09842935106428    7.09140581568772
B         7.93001746124596   10.64474020647405    8.64647807427819
B         9.10569464783758   11.11071875146659    9.84204453873361
B        10.53123119475740   11.78479237083872    9.02824744050748
B        10.15221318567996   11.85802153241379    7.31344638370784
C         8.86330738061807    9.46261971053989    7.74723715186715
C         9.06282188214392    9.45875383190435    9.24778081041933
B        10.53175783805264   10.04479315297602    9.61910964718772
B        11.31493125275026   10.55677914990761    7.86615776133601
B        10.04473593246938   10.12772219183595    6.85779177346163
C         8.47407805125798    8.32055728900607   10.05562905438337
C         8.76864232654374    6.68575005797319    6.82346986390673
C         8.08179748299382    5.53852989551182    6.43328455063812
C         8.68466908455039    4.29834931706637    6.52673795503301
C         9.99051445205051    4.19307407360579    6.97758662326756
C        10.69421315381885    5.33451431116038    7.32623381411934
C        10.08883489112310    6.57555375616664    7.24939976633567
C         6.27319632839030    8.01994707928421    7.28433542517378
C         5.95082996501214    7.00947687008056    8.18594007476520
C         4.66029046637339    6.89669938048717    8.66955698058046
C         3.67979785656907    7.78798409141287    8.26382278596041
C         3.99225797084325    8.79410166032409    7.36485354056294
C         5.28097375162880    8.90743199253588    6.87745367249557
H         8.31727798713342   13.21075629885871    8.57183251322266
H         7.82716044817829   11.18600079297044    6.11802578770605
H         6.78861460132140   10.43860914311177    8.84785176754296
H         8.78497064111247   11.29243907188142   10.95772243902488
H        11.19177144066903   12.60553499401627    9.55531296486859
H        10.58470028780210   12.66369591267903    6.57083865434872
H        11.06502636357300    9.70554994345793   10.61762396645899
H        12.46195790438683   10.69840508132594    7.62192567535546
H        11.27227401295285    9.54201803389614    8.67388838241146
H        10.09926324439302    9.68191813634781    5.64277905347104
H         7.39134488573983    8.25092608660036    9.94985644264322
H         8.90860760957494    7.36517123480007    9.74997819545484
H         8.69738257224604    8.46201508399386   11.11153896549908
H         7.06929303685592    5.62338175324925    6.06111850026916
H         8.13465488634153    3.41264625951335    6.24485800625469
H        10.46082731024636    3.22379924071867    7.05188209151106
H        11.71680981172048    5.25651021858784    7.66503543402242
H        10.64243620392629    7.46267436200631    7.52055310195111
H         6.70762007681144    6.31005503366069    8.51110658741811
H         4.42016560536037    6.11123532304725    9.37133052723310
H         2.67501005478188    7.69680537116664    8.64825527856913
H         3.23258718453102    9.49082233616674    7.04391422077353
H         5.52289990879311    9.69353554679962    6.17253000659145
P         8.96440614228017    8.31156085576394    3.14611072549195
B         8.33266643485886   11.09842796140936    2.70522966085499
B         6.88438566174464   10.12772415833175    2.93887014252386
H         9.10196063028769   11.18600754127283    3.67860684733897
H         6.82987755422226    9.68192703593891    4.15389084961113
C         8.06579427913179    9.46261850433426    2.04940076059825
C         8.16046622006661    6.68574888695051    2.97316712560715
C        10.65591044263928    8.01995131227417    2.51230228730317
B         8.09532516316713   12.16056809264794    1.33032706309664
B         8.99908616617816   10.64473090391332    1.15015331546344
B         6.77690414763301   11.85801721629077    2.48319388372312
B         5.61419569869628   10.55676373239960    1.93048769670050
C         7.86627446881494    9.45874943679312    0.54885605247176
C         8.84731308799055    5.53852834583081    3.36334777431762
C         6.84027072224593    6.57555378186896    2.54724598235516
C        10.97828097057560    7.00948016216998    1.61070031627483
C        11.64813178582949    8.90743823082077    2.91918350577656
B         7.82340812772305   11.11071266706090   -0.04541178687188
B         6.39787595610169   11.78478467645660    0.76839271700111
H         8.61183306527295   13.21074867653588    1.22479505876687
H        10.14048792440514   10.43859569176239    0.94877655704191
H         6.34442140427526   12.66369526421316    3.22579969322750
B         6.39734190888530   10.04479065672236    0.17751912381479
H         4.46717225203987   10.69839853803095    2.17471780356006
H         5.65684005807089    9.54200813373035    1.12274499391610
C         8.45501833997451    8.32055097139648   -0.25898900053839
C         8.24444054500660    4.29834807345894    3.26989621224774
H         9.85981956923851    5.62337909201909    3.73550819828827
C         6.23489187439349    5.33451459508320    2.47041360936969
H         6.28666840287053    7.46267497512451    2.27609717946087
C        12.26882093749555    6.89670550302423    1.12708374839163
H        10.22149293193013    6.31005594546177    1.28553322396684
C        12.93684827480358    8.79411088245589    2.43178462876322
H        11.40620523337597    9.69354147827934    3.62410793523660
H         8.14413135024902   11.29243224078434   -1.16109040569753
H         5.73733673118217   12.60552801205828    0.24132636325874
H         5.86407043926988    9.70554569661949   -0.82099508795637
H         9.53775129776396    8.25091861585867   -0.15321468962393
H         8.02048782041070    7.36516639467179    0.04666391097554
H         8.23171604301973    8.46200611362257   -1.31489978625215
C         6.93859270347985    4.19307374753632    2.81905417386672
H         8.79445542226906    3.41264448063125    3.55177291678031
H         5.21229249557324    5.25651214724791    2.13162028332939
C        13.24931151009041    7.78799310259407    1.53281655794637
H        12.50894846913105    6.11124111013306    0.42531140819881
H        13.69651777989729    9.49083327515519    2.75272383378577
H         6.46827806470145    3.22379954803312    2.74476322978645
H        14.25410002096797    7.69681556330455    1.14838555604266

