52
CSD_code = ZEGYOZ | q = 0 | S = 0 | Stoichiometry = C19H27NO2P2Ru | MND = 8
Ru       15.94580415023228    6.62486079896827    4.75766272627783
P        17.23745370666088    4.76186048602813    4.65100346731739
C        18.83850893626417    4.61678054356053    5.53162980596034
C        17.82538405065980    4.44397669074955    2.94254795321599
C        16.47921696250328    3.13881304696017    5.06704865365247
P        15.76150303315017    6.86052602192152    7.00269622707891
C        17.02815424192629    6.21724052753203    8.15879688533578
C        15.73752502098058    8.61402384547862    7.53700467669150
C        14.22965872687554    6.23631876646314    7.80308778700786
C        17.65729673804384    7.61797258266003    4.96665716215254
C        18.66860114403787    8.29536709243806    5.01467036505630
C        19.84935601451639    9.04958066499098    5.08686368646580
C        20.07481276488236   10.12090539258165    4.20569886445482
C        21.23421785430056   10.85159769650992    4.27629715735439
C        22.19889588643587   10.52817768307066    5.23319857272114
N        23.39985437956163   11.28098163787475    5.30671696810898
O        24.22248332773325   10.97221435718260    6.15569742856628
O        23.55352543852515   12.20061519556025    4.51766186708457
C        21.99094384278055    9.46819490721663    6.11844723669826
C        20.83080054005003    8.73939986009126    6.04499761753535
C        15.04689162986810    8.13702332032710    3.36890460499289
C        15.38217582590877    6.97187185026853    2.63434954758380
C        14.58151793112675    5.90248756338013    3.13701868821211
C        13.79001876985421    6.39145398877574    4.19133139286417
C        14.08846239126979    7.78019176983287    4.34469625094406
H        19.40961625907982    5.52353733926023    5.33841736731029
H        18.67127912870902    4.52242615968112    6.60138396784032
H        19.38299105309263    3.74545103685305    5.16853308069314
H        16.97841682131433    4.33229067935163    2.26784199252023
H        18.41546681140348    5.30635043527803    2.63204401419560
H        18.43986161210525    3.54448621438712    2.90770362323120
H        16.21391846643204    3.13433967058760    6.12343951001480
H        15.57191273960826    3.00390830717991    4.48052102027733
H        17.17343039440587    2.32547437138959    4.85908181734168
H        17.02100117215160    5.12861793741691    8.13633451289734
H        17.99831991594343    6.58415944511273    7.82653839393243
H        16.82457861353521    6.56430682937240    9.17159697701167
H        16.68511636375169    9.06129978440902    7.23786933958175
H        14.92963965271456    9.14062614244973    7.03139198137174
H        15.60793000188660    8.69259095267300    8.61618722951323
H        13.36495867284826    6.71322157850727    7.34417603314300
H        14.15977950348161    5.16019724358002    7.65074184627403
H        14.24140652583689    6.45528625922417    8.87037405765278
H        19.32085696828523   10.35919927364239    3.47021753064690
H        21.42265377861546   11.67648591490151    3.60592855344629
H        22.75391351838147    9.24199434305330    6.84788611092717
H        20.65789752630679    7.91681106847635    6.72420238996849
H        15.38893728370214    9.14111253593911    3.15529589341804
H        15.96631877301365    6.94729940363229    1.72360452809946
H        14.49445659653424    4.91961090137222    2.68842976756460
H        12.97629088580119    5.86463346656233    4.67168679759244
H        13.52878765284470    8.47484641528519    4.96018607017882

