50
CSD_code = ZEGYEP | q = 0 | S = 0 | Stoichiometry = C19H28P2Ru | MND = 8
Ru        9.94629562451649   18.96945853893500    4.10486308252002
P         8.42034033977145   19.07337813173786    2.44230193713517
P        11.79803349340186   19.23177886015384    2.83694122830201
C        10.40751077828807   20.58259509489257    5.58245633154949
C        10.85393525305347   19.32820640531030    6.10873668201496
C         9.71741133632231   18.51027192353713    6.29826037974484
C         8.58042989258501   19.21770604694814    5.84336672266756
C         9.01457306033965   20.51420854861175    5.42161632689842
C         9.95707099910732   17.02227129207238    3.61772526725999
C         9.89687181916426   15.82322221899522    3.44182788320352
C         9.84516375409117   14.42764234066147    3.21319465477968
C         9.09881354383054   13.59372967081005    4.05004919356486
C         9.04856261063305   12.23377175239601    3.81775201644419
C         9.73819695441856   11.67942409299201    2.75065558377334
C        10.48122878010040   12.49805742527567    1.91432059675960
C        10.53626063078013   13.85896788666311    2.13905862394495
C         8.74766715876136   18.28376091377137    0.82033608592351
C         6.84011840323365   18.24308292190283    2.86118866797435
C         7.78502537839842   20.71099092811025    1.88525306853141
C        12.36523025574949   17.89479143284928    1.71721884812190
C        13.34877060457734   19.47760444071775    3.79076655530853
C        11.90606167960231   20.68356147565546    1.70655271861070
H        11.01376533233416   21.47506202506746    5.48598082486379
H        11.84354898512385   19.12885684404858    6.50052984595097
H         9.70922820522782   17.54048589476514    6.77864419327010
H         7.55128325142810   18.92103708945029    6.00332142866496
H         8.36302904767632   21.34353806403942    5.17482707568038
H         7.85525781532065   18.31576191370780    0.19558850712334
H         9.56502066472955   18.80039902630109    0.31940531059142
H         9.03606440094431   17.25090173215167    1.01238786600407
H         6.14876696974810   18.26815243180410    2.01898332115126
H         6.38663626482078   18.73672439535865    3.71966774386982
H         7.07436639333802   17.21198048283482    3.12499032940386
H         7.33545278658781   21.22527088367442    2.73306811290859
H         7.03896959783970   20.58639003214417    1.10095683068962
H         8.61323087267109   21.31154200610982    1.51256473439242
H        13.29151610705681   18.17633957620046    1.21646130494180
H        11.59094852810968   17.68057591266939    0.98424355731509
H        12.51677084665419   17.00292144418116    2.32336897479809
H        13.26035551439708   20.35993503761555    4.42256747257458
H        14.19543538537884   19.59807833742135    3.11467363808762
H        13.50560810383016   18.60160824846524    4.41930606516028
H        11.73495202051363   21.59088483333221    2.28444564264360
H        11.12941442033520   20.60333834509861    0.94754292856190
H        12.88374624181153   20.73350864953185    1.22849924290650
H         8.56150830992260   14.02775404191382    4.88208307650931
H         8.46728301159876   11.59808009072597    4.47194419466953
H         9.69745175096656   10.61438100885838    2.57186195041639
H        11.02165269538184   12.06864480073892    1.08144910984187
H        11.11606412552971   14.49916450875896    1.48769426198119

