37
CSD_code = ZEGZAM | q = 1 | S = 0 | Stoichiometry = C11H23P2Ru(1+) | MND = 7
Ru       -0.07075102417385    2.14139968763439   -0.12620025193492
P         1.46035406919602    0.45440366102184    0.26023550201795
P         0.71646636146081    3.71768243529593    1.33729601485657
C        -1.28463361196417    1.94313305722655   -1.97422783772544
C        -1.79185017846896    3.03762328757995   -1.20362819854794
C        -2.27020288468538    2.52856345874230    0.01943273376403
C        -2.01671287246835    1.12581125266155    0.04693217335219
C        -1.44450682183416    0.76763640678152   -1.21766791303114
C         0.73398064302551   -0.99250907377631    1.10150177967243
C         2.12597674948744   -0.26905605033021   -1.28216871337822
C         2.99657492189562    0.68322684620588    1.22901920870747
C        -0.33974080648786    5.17117847131547    1.66990332112887
C         1.59227249977710    4.15136084603598   -0.24362564840141
C         2.00538701141985    3.92237519978409    2.61972023107464
H        -0.97183105012726    1.99474248736449   -3.00888164761197
H        -1.93285463699463    4.04516527790048   -1.57230773122094
H        -2.80558956416793    3.08146136849727    0.77872497958417
H        -2.38639099909245    0.43161225010175    0.79159550777342
H        -1.29070932161480   -0.24212099486986   -1.57226679755509
H         1.49097790043745   -1.76670164240116    1.22483481415912
H        -0.09625934527062   -1.38410035354737    0.51723022396282
H         0.36383115802658   -0.68424746883892    2.07859078971909
H         2.73585489592965   -1.14115770401058   -1.04899445521017
H         2.73795896139510    0.47115673574275   -1.79725793849463
H         1.30813614145087   -0.56400642128730   -1.93681611426235
H         3.58140174547498   -0.23591062170721    1.19813862769681
H         2.73869712958687    0.90947092967833    2.26265898881280
H         3.58853618007799    1.49679736370035    0.80931564479956
H         0.27250179358408    6.06807303617493    1.76278734573200
H        -0.87785607134078    5.00942844550311    2.60319900469033
H        -1.06378799298331    5.29799991874438    0.86668653318272
H         2.67428020101187    4.17471513436531   -0.11305768642844
H         1.24351017968687    5.10137680153924   -0.64798442840874
H         1.36001805139558    3.33420808729595   -0.99885182970799
H         2.34986069505075    4.95669716901424    2.61568106806503
H         2.84427456491203    3.25497245767123    2.43894299864662
H         1.57452532739801    3.69273825718457    3.59320970054513

