65
CSD_code = ZEHBOF | q = 0 | S = 0 | Stoichiometry = C26H33Cl2N2PPd | MND = 4
Pd        4.67995817893152    3.89450187687168   20.36158280534890
N         3.10924510152145    2.53347912067317   20.47507822135905
N         5.99770444179004    2.36647200546042   19.70909713162009
H         6.83636114258549    2.96299703887745   19.68785605749967
P         2.94377772994805    2.41181059221486   18.89234321409146
Cl        3.53817254750148    5.51259651093218   21.46214715592504
Cl        6.46661292605151    5.24780369736904   20.17575478533850
C         4.30687292896849    1.32876828174616   18.27140716811869
H         4.21433134496483    0.40635443504242   18.85452723090155
H         4.07451731028200    1.07730272234332   17.23325020554875
C         5.73432943460572    1.87461858470054   18.36493269642045
H         6.42334838659537    1.04331394184567   18.12153177569865
C         5.97861993405068    3.02408549913901   17.39054277157719
H         5.45711815348632    3.92278902166582   17.74098960068130
H         5.63476686919661    2.77682282389345   16.38970455792179
H         7.04085845367481    3.25566125130383   17.34463125941876
C         6.17456959172680    1.35703674385014   20.75216515183199
H         6.99180897014897    0.66762070096075   20.48676642373719
H         5.24988812690048    0.77711424466331   20.84767793062576
C         6.47789918312641    2.04000991219331   22.08908855256221
H         5.70098783884300    2.81101412456715   22.28408234928241
H         7.44326609402737    2.55083066976097   22.02646753299287
C         6.49297915198518    1.05275049590480   23.25325169228129
H         7.27548852932667    0.30712903100219   23.09132544304228
H         5.53622206926060    0.52600504915076   23.29486825479726
C         6.73392730471813    1.76864348531178   24.57613450745977
H         7.69693171752502    2.27318386019408   24.56625731350167
H         6.72308464767144    1.06275961175052   25.40299321445171
H         5.96194883745577    2.51460882811198   24.74909763703967
C         2.08177726249958    2.83515453948960   21.37208019204348
C         0.82178420675223    3.27028355172035   20.98239448940915
H         0.63075979402350    3.44050158927377   19.92707120971395
C        -0.15586300471806    3.51996077831552   21.92561471807619
H        -1.12703870773707    3.86647247823635   21.60166430310699
C         0.09823145669103    3.34974588052758   23.27879325263488
C         1.36531643178650    2.92453519483089   23.66529008396792
H         1.58606255084889    2.80277405258066   24.71622710505122
C         2.34504162097834    2.66621398494967   22.73138411609716
H         3.33508090736086    2.35240232751661   23.03791994160903
C        -0.94798914602864    3.65255968621223   24.30890805762998
H        -0.94365385103694    2.90174564335396   25.09706294938427
H        -1.93791389756423    3.68756832270783   23.86034384272451
H        -0.74760895663946    4.62084429979491   24.76850315739845
C         1.49817604068252    1.35901049861913   18.51501455709096
C         1.37155293730775    0.20858406339151   19.28664142430794
H         2.12048240496934   -0.00958225537824   20.03651366794792
C         0.28845664073409   -0.63175285895528   19.11522056127995
H         0.19581767955369   -1.52334311917597   19.71724927143822
C        -0.68160736217696   -0.32271370052213   18.17508829035565
H        -1.53002251373849   -0.97656463244786   18.03976927909048
C        -0.57042981930393    0.83237985044301   17.41952656629476
H        -1.33396574097284    1.08177417558490   16.69758031237940
C         0.51295786495671    1.67662162288269   17.59013392459792
H         0.58537760495135    2.58560436930744   17.01016708450891
C         2.81986693814419    3.83384657301725   17.73741919064927
C         2.84145096560089    3.59868521790518   16.36343289840512
H         2.89176086043175    2.58595934532266   15.98607129915350
C         2.79514469696178    4.66157615919990   15.48115880219625
H         2.81684874772733    4.47664130828567   14.41700043663298
C         2.72628229690983    5.96081739118890   15.96099467240268
H         2.70321638343412    6.78818535624972   15.26766806568994
C         2.68005121267294    6.19514188489815   17.32497403346037
H         2.61464551892437    7.20371115422306   17.70291679653802
C         2.72299876249190    5.13642692668138   18.21882310442418
H         2.66875426564674    5.32964417826741   19.28812570123234

