61
CSD_code = ZEHJAZ | q = 0 | S = 0 | Stoichiometry = C30H21Cl2FeN7 | MND = 5
Fe       -2.40459169203772    2.59724880858433   11.76765516539104
N        -1.12035894204295    2.27097323717496   13.16679351190129
Cl       -1.17539566468159    4.09475632290288   10.92317078489815
N        -0.48878055352110   -0.77881086472614   11.29296903837475
Cl       -3.94548091806180    1.76432617391077   13.00002189978540
N        -3.68335616241493    2.70025433299457   10.31986297038726
N        -1.29557970587146    2.23486835153690    8.04184222597793
C        -2.15159398870135    1.22531325634330    7.85687993147786
N        -1.74066998515382    1.04653521902736   11.13773041715740
C        -0.80144350834315    0.40982135484257   11.88131165058391
N        -1.16919641233198    1.63979129106437    5.91797004852881
C        -2.04836055740915    0.27381625409216   10.08294577985501
C        -5.94369846154643    3.01037051740165    8.72891692516870
H        -6.82421016976653    3.11671936680992    8.11450872729307
C        -1.27110472885269   -0.87604617171802   10.13607675115301
C        -0.42058703548418    1.10330173162011   13.06691432420332
C        -3.94802713040716    1.81757928249276    9.35139027409877
C        -0.70597872031008    2.48947727366884    6.88553996937848
C         0.37526407515403   -1.76760036741045   11.63086407020019
H         0.94518076955506   -1.64063770269471   12.53496231990580
C        -2.98434829188054    0.70343287960432    8.99937054488281
H        -3.55726570892983   -0.16233781974723    8.65210889229832
C        -2.75737812381531   -0.17275489398891    5.75600976677803
H        -3.48527508964458   -0.81341459754581    6.22981557066530
C        -2.11218846252211    0.81051115793908    6.52610587635494
C        -4.51444387494057    3.73531790252337   10.47950346541209
H        -4.24392178375847    4.43193567206979   11.27139569989523
C         0.49855336572557   -2.87022215832280   10.83986034046082
H         1.18850291334947   -3.64860975681950   11.11998155544399
C        -5.64574537075278    3.93540510594916    9.72086155634747
H        -6.27938345419376    4.78838773646802    9.90237065341617
C        -5.07532131756377    1.95087651631449    8.54587005556120
H        -5.26148587583421    1.21929509340349    7.77393654030952
C        -0.26740369496042   -2.99635360343334    9.66024108233567
H        -0.15118070393170   -3.87345888635248    9.04428393560576
C         0.58121681160919    4.36321785089198    7.79776978975004
H         0.07054141583284    4.21857669471894    8.73704298281058
N         0.86217932339919    3.66490889421453    5.51758994079514
C         0.27839519093870    3.53246142579094    6.71195281166913
C         2.13651252230583    5.48994584045356    6.37674285722056
H         2.87959442324303    6.25150003417622    6.19670172535522
C        -0.90844989828584    3.06034443330235   14.21187836835511
H        -1.49155985453513    3.97263308027957   14.23391015635122
C        -1.14377038580096   -2.00987422119102    9.31197281962116
H        -1.74231215098988   -2.06610597746262    8.41750438914798
C        -1.48778283617358    0.57366657885116    3.85202346114126
H        -1.24930272006056    0.47655499505907    2.80555872367747
C        -0.00920590154195    2.75966835165818   15.21431384928291
H         0.12682824113066    3.43411567540656   16.04353653677626
C         0.50613090872923    0.73815254544675   14.04803329759689
H         1.05543086753193   -0.18497633729370   13.96568869768567
C        -0.86483703227807    1.52027153164545    4.59778039226572
H        -0.12258176643678    2.21024925558975    4.22840649939173
C        -2.44944337083537   -0.29098501622607    4.43393228514383
H        -2.92957706267022   -1.03656960030756    3.82003727732528
C         1.52584250456623    5.35358049210024    7.61763019373276
H         1.78209055189128    6.01327677368573    8.43333360868051
C         0.71166590971884    1.57124954020933   15.12698817261787
H         1.42232447403573    1.30399143249454   15.89401125810485
C         1.76304129746929    4.61939182797255    5.36667674459674
H         2.20468350309074    4.68268588255750    4.37944083940596

