110
CSD_code = ZEHJAA | q = 0 | S = 0 | Stoichiometry = C41H61Cl2N4PPd | MND = 4
Pd        9.52109952015190    9.23228455206455    9.92002830999479
Cl       10.19000256633240    9.06263690043790    7.73410842550339
Cl        8.96311578525486    9.22959855021386   12.15525394235534
P         8.98067573540367   11.48384387454016    9.70480627430512
N        12.55099313388291    7.39274941730000   10.07897289038568
N        11.64524729869150    5.38347505518024    9.74735790943860
N         9.07807170633295    5.63055170725848   11.74631149735936
N         7.77352377112825    6.34598778298892   10.09192181847342
C        10.08112038833927    7.21594554083602   10.15491458052743
C        11.35008202012111    6.71668630756402   10.04504332937109
C        12.73228778692675    8.76823580265178   10.43697344374962
H        13.27857288221259    9.28985811168267    9.64659555087423
H        13.28827408230332    8.84844037163902   11.37675940059109
H        11.73175008517532    9.22449065591759   10.56348971660771
C        13.57732776036906    6.52180297344148    9.81205350761563
C        14.94388336500749    6.71645118198592    9.74956729752872
H        15.38276346275073    7.68706649821556    9.91676811336669
C        15.73391697743235    5.61159522661608    9.45997070093042
H        16.80525959093436    5.73043445185710    9.40450238268697
C        15.17562663752545    4.36191377834308    9.24254726388396
H        15.81870603677986    3.52424084992609    9.01962317138199
C        13.80201968180020    4.16024838464134    9.30753857156014
H        13.38045481483461    3.18045717418391    9.14368181668682
C        13.00963525878551    5.25462696655780    9.59137765843262
C        10.68702364302691    4.44549707762446    9.23522307304400
H         9.93763665869451    4.98009349652166    8.64646183268954
H        10.17801681872227    3.89639562652863   10.03268050010673
H        11.19958795208653    3.73379921171273    8.58921792968313
C         9.03396651782669    6.41802913900667   10.61626217349643
C        10.13584155422965    5.70626110832938   12.74127308631055
H        10.87865144716015    6.39869823442784   12.32985243604726
C        10.80694216142469    4.35178115946155   12.96308966232291
H        10.08543994338722    3.59750457687141   13.26386728260275
H        11.55300501222005    4.44661190138474   13.74760939249972
H        11.30830618539030    4.01311096118176   12.06031092738387
C         9.61353261347402    6.32022410978259   14.04007541939187
H         9.15899202551205    7.28451634479971   13.82178337544291
H        10.44484821127414    6.47892347098769   14.72188708322743
H         8.88015795923700    5.68601069078780   14.52722870208426
C         7.82179105226927    5.09522425476404   11.94912088075181
C         7.32638802404185    4.23206337514444   12.91270640961363
H         7.94238765458932    3.85099445550747   13.71021108175947
C         5.99416470454522    3.86124723504323   12.83283057515299
H         5.58835705218186    3.19291950319033   13.57686904633113
C         5.17322898154138    4.33839237543828   11.82174653253070
H         4.13610334015804    4.04089382035905   11.79375004385380
C         5.65900329745992    5.19074376665996   10.84440938836041
H         5.00149246794930    5.55574780614733   10.07329304147584
C         6.99454276362984    5.55408005039734   10.90384209978196
C         7.41751909423544    6.90509883787221    8.80014396520893
H         8.35195373513712    7.30544755589117    8.37396180373274
C         6.44376889480692    8.06619477443621    8.98698452063124
H         5.57521481690846    7.76659149378138    9.56838108639110
H         6.11276432871200    8.43299673905526    8.01871596435948
H         6.96794458275165    8.87168592585880    9.52081697093715
C         6.88764222168498    5.83037015778121    7.85189066496658
H         7.53195261331337    4.95350396505151    7.86758589514717
H         6.87439062130563    6.22677559053616    6.84013247642823
H         5.88012276958456    5.52030441711585    8.11174022106229
C         6.43860164431766   11.27937376544052   10.92831271923667
H         5.89652619573924   11.29575969351062    9.98018897734890
H         6.75103067465351   10.25424366533462   11.13957403947186
C         5.51804235722978   11.74737788442958   12.05311923778204
H         4.62560679081543   11.11843506772132   12.08275905490864
H         6.03796524084231   11.63252030518595   13.00664385481374
C         5.12026678622935   13.20770401832982   11.86388777902406
H         4.53713780928225   13.31008983938384   10.94489797769022
H         4.49164503569569   13.53391463785314   12.69517118846199
C         6.36316071636671   14.08744588938042   11.77301459436887
H         6.91747727554356   14.03220465781883   12.71278055959908
H         6.07379952923481   15.12929278664096   11.61503931890643
C         7.25584114814361   13.62023268698093   10.62458659460820
H         8.12606260679441   14.27437414384379   10.54590885338907
H         6.68430292615295   13.69054580586728    9.69771866636487
C         7.67742088479365   12.17310769246963   10.85766220544694
H         8.16110183735884   12.10264155709282   11.84070189136006
C         7.36593761537996   11.41414882441165    7.42737993547447
H         7.36177447374973   10.35119110385944    7.68229777040385
H         6.49846019967594   11.89191985491697    7.88941776112305
C         7.28682581737637   11.57395459853443    5.91178160844979
H         6.35232839785284   11.14719990169283    5.53957969092901
H         8.11276044720192   11.02419896622719    5.45615587975956
C         7.37735527998782   13.04643975324766    5.52281225318114
H         7.35511591645302   13.14686032046695    4.43562688116884
H         6.51324378680890   13.58253885599212    5.92448422558517
C         8.65706204853909   13.66656182038959    6.07593149902780
H         8.70561206702704   14.72425758445317    5.80571910550090
H         9.52122153886599   13.16646015760192    5.63270061222606
C         8.70856160245294   13.52016710319578    7.59722237039525
H         7.85666918956032   14.04898245111284    8.02298678621106
H         9.61823318240163   13.98896385559664    7.97461243167456
C         8.65950005275336   12.03566806403501    7.95015198509740
H         9.47695255931167   11.53325552476844    7.41332066283809
C        11.61009792120563   12.20428182934562    9.18640387020130
H        11.78047785057717   11.12277228609367    9.15905781202930
H        11.32949092483904   12.51311094545847    8.17861843858774
C        12.89630856570276   12.92717996719172    9.57750046271386
H        13.68736951158113   12.67170662210024    8.86904450462759
H        12.73379016950567   14.00692832113698    9.51776364352094
C        13.32358908464754   12.56488806105921   10.99479176536000
H        14.22862910206204   13.11406777079256   11.26393946714860
H        13.54900420242033   11.49811124094937   11.04763357553609
C        12.20181652849838   12.89316761750865   11.97244400888276
H        12.01438092007422   13.97024317106274   11.95912513103546
H        12.49557909817860   12.61854215372619   12.98766912467028
C        10.92251174697698   12.15295561629715   11.59515998574366
H        10.14191240148738   12.41049747217859   12.31323879148591
H        11.08835600812566   11.07152047512506   11.66860570816279
C        10.47639635843556   12.49906502341469   10.17246145984213
H        10.21659390187400   13.56457326338752   10.12897016024820

