104
CSD_code = ZEHMEG | q = 0 | S = 0 | Stoichiometry = C41H58N4Ni | MND = 3
C         1.79045594464237    6.74708386577664   14.15890438978035
C         0.87666578390123    7.65685063451233   13.61297491084208
H        -0.08538338915201    7.66996412146915   14.08600744944956
C         1.02073243065863    8.56177628562270   12.55253276378873
C        -0.25510557975568    9.37109920633662   12.23268444547396
C        -0.78890415789746   10.05485888595240   13.50302727332398
H        -0.01116473203625   10.65724201239118   13.96816328601472
H        -1.15641131957655    9.34565750400465   14.23840314708734
H        -1.61569384790802   10.71265265966703   13.24180154487060
C        -1.29529745262323    8.37328002662067   11.69762308920259
H        -2.22983132890117    8.88818386813057   11.48220135613645
H        -1.49854567238586    7.58126481116512   12.41291123055031
H        -0.93611523297959    7.91428886417011   10.77884289292377
C        -0.09988293649964   10.47540171617663   11.18336768416024
H        -1.07593113697132   10.92749433797195   11.00797541190877
H         0.26133128351823   10.09203480486585   10.23573651761651
H         0.57332964698765   11.25785987300729   11.52044866285315
C         1.24305469587059    5.97969084721008   15.38547684480368
C         2.12551696956639    4.85587677542434   15.93672911453556
H         3.11116301087775    5.20910697078572   16.21643467916967
H         2.23687375517504    4.04350960146499   15.22532234439101
H         1.65155137528100    4.45270669877733   16.83165473939757
C        -0.11821911211446    5.33761902698803   15.06489540441434
H        -0.05143651592735    4.72239034401019   14.16994193926649
H        -0.90513518183923    6.07078722669471   14.91655632769654
H        -0.42157525336133    4.69838979796317   15.89177815765278
C         1.07926771569642    7.01710091293738   16.50941226578021
H         0.66550501834829    6.54264045650040   17.39739885298777
H         0.41914529168300    7.82846594873697   16.21625698893921
H         2.04600438404668    7.44478755872494   16.76629299149228
C         2.55813981565268    9.58683281909683   10.92955212011542
C         2.55012184135476    9.28473176253220    9.55361434900517
C         3.05459668012103   10.21330297356032    8.65694805865500
H         3.05329648425080    9.98838530362609    7.60068026502014
C         3.56010956526403   11.42312609562048    9.08981265368346
H         3.95167048924452   12.13400548450861    8.37729259485219
C         3.56887024446522   11.72042410606923   10.44140183335293
H         3.97384428090107   12.66590117299700   10.76631505585485
C         3.06624068364193   10.82997606519469   11.37261893954245
C         3.10801523314472   11.12857696303421   12.85574760632126
H         2.24730049282178   10.64232699900399   13.32770492732814
C         3.03978410512073   12.61848754769758   13.18736194586817
H         3.96212782798369   13.12652356470899   12.91641397047538
H         2.89071088696608   12.74870039426481   14.25772312761769
H         2.21251174194218   13.09586042889515   12.66564197217074
C         4.37405125329729   10.50409663112668   13.44913059626067
H         4.37424694625516    9.41318963767627   13.25642428883704
H         4.41396983587227   10.66302300348734   14.52477852150472
H         5.26231704306413   10.93622268969504   12.99296911034125
C         2.02481960778433    7.95897304767873    9.04938078981018
H         1.65450436254653    7.38730485602530    9.90807110885545
C         0.86916694844932    8.13711729164193    8.06223157922388
H         0.04430408000794    8.68213086763195    8.51664389777444
H         0.50024015399425    7.16404431163019    7.74287347349572
H         1.19127690880524    8.68486913620538    7.17991910844312
C         3.15732643950139    7.16343569527364    8.39437182169495
H         3.50305855588056    7.65876176839392    7.49000755572610
H         2.81685865192952    6.16371952088776    8.13133472320633
H         3.99916270404714    7.07956884972437    9.07853019938931
C         3.97264988405365    5.64843440149552   13.98012619995688
C         3.85980725993040    4.40022462606919   13.32923713449802
C         4.85467867126475    3.45636582988021   13.51103308890322
H         4.79696604775248    2.50710170323511   13.00255435393624
C         5.93074770718614    3.70496915658155   14.34396980797660
H         6.68918289252243    2.94936593063833   14.48444059896415
C         6.03014269050824    4.92010738115118   14.99339722303942
H         6.87213361161826    5.10460970728793   15.64446838561426
C         5.07077008990327    5.90495913413251   14.82148789939536
C         5.22431692774426    7.24266362008592   15.51096205280989
H         4.35230167188353    7.85660224741525   15.25837205146615
C         6.47612986839646    7.95886213439109   14.99679487121878
H         7.37345395965634    7.39766727779072   15.24809371324974
H         6.55530691258332    8.94880864626832   15.44064480469252
H         6.42445914718883    8.06996462706272   13.91478911952254
C         5.28674345848228    7.09909824360796   17.03303394625932
H         4.40070703992463    6.59780454114092   17.41688928147293
H         5.35087897924249    8.08175623055457   17.49658343215066
H         6.15859230335691    6.52359099968971   17.33475225882336
C         2.67600984323728    4.14435522207527   12.42011806591479
H         1.80154275162225    4.63753092536592   12.85708353657040
C         2.33750214806467    2.66483993178830   12.24837083428519
H         3.09205047152874    2.15435818577060   11.65444663231778
H         1.38375709280797    2.56519224882117   11.73322313782844
H         2.25851592794169    2.16981469532216   13.21413299253778
C         2.93220966372279    4.79181387181128   11.05799492934001
H         3.10969800080166    5.87565113258027   11.19047251277540
H         2.07067245384202    4.66684484972604   10.40536822728228
H         3.80424550545757    4.34511654854678   10.58513713275135
C         6.48097038190370    5.56144483377725   10.84649740715276
C         7.36616756054210    5.22010095898071   11.87636385302954
H         7.47396339506546    5.88290678917664   12.72045577258712
C         8.08319405639337    4.04551745362926   11.79303482794671
H         8.76599476474348    3.78519866324594   12.58795536721589
C         7.92692119524227    3.19799494561180   10.70741049609484
H         8.48564565353652    2.27593655855782   10.65534918401987
C         7.05522798265829    3.54001415649104    9.68371429400192
H         6.93593680010500    2.88313460310463    8.83460545879043
C         6.34455340765989    4.72054457977529    9.73766655335854
H         5.67100549418768    5.00002989664936    8.94126845228021
N         2.14037888070030    8.63809946719528   11.87227077844449
N         3.02539831773167    6.65069506114537   13.71101333207380
N         5.34758397526715    7.52167639382782   11.63377301387042
N         5.83598418400197    6.76100219264179   10.85918862525469
Ni        3.78259264742294    7.68324476344576   12.21010145736956

