98
CSD_code = ZEHNEF | q = 0 | S = 0 | Stoichiometry = C35H58MoP4 | MND = 8
Mo        2.28379282787799    2.98639635645363    2.83632032377233
P         1.94279639927460    2.89196373971105    0.49455105380019
P         4.50991207733042    2.30669944008750    2.40912265068885
P         2.80011274832396    5.20913696214674    2.73135324511124
P         3.40389019837159    6.76895004289958    1.31896751310476
C         1.31676386745311    1.05881443297101    3.55411505825353
C         2.10093436891586    1.55484074421082    4.64284374651482
C         1.54233909783673    2.79298623285639    5.06330873114171
C         0.40186842339109    3.05987806844174    4.26596021922552
C         0.25405213936427    1.99437404653163    3.33736250166498
C         1.31259206963185   -0.36195372017128    3.06632918576062
C         3.02378026068656    0.73974571501989    5.49972284458254
C         1.90626717027236    3.52271617317686    6.31832737294867
C        -0.64871414172887    4.08077639474662    4.57438076646685
C        -1.03698310126590    1.69427312463779    2.63602451980226
C         0.46446517910859   -1.25409274575878    3.97744564351664
C         0.21574003535928    3.05738432520941   -0.11697604348308
C         2.36386563683729    1.35092936750256   -0.41150758345356
C         2.67147741480191    4.12669226335457   -0.65019264046786
C         4.86236105785243    0.51466195708325    2.23355309255311
C         5.57984050165067    2.91142339954476    1.03541886903216
C         5.66875022008416    2.66814559828223    3.79097716007250
C         1.95576376107219    6.38623369872530    3.84353464538094
C         0.71044391190571    6.90620423926475    3.46927147854176
C         0.05648520385286    7.79157531556988    4.31505828402621
C         0.61243484317277    8.18562235381610    5.52218233256619
C         1.84642356039389    7.66199301560209    5.88029565743286
C         2.52261694706601    6.76901815018454    5.06339569498235
C         0.08670017452455    6.52059420716150    2.16620973175070
C        -0.09786901141456    9.14360492090926    6.43098124456706
C         3.85813737690333    6.24705823950625    5.49616354080907
C         4.30257294003570    7.96336336667258    2.38435103749309
C         3.69195138037643    9.19973920134174    2.64066744712014
C         4.33324377680640   10.12573393431510    3.44788566715977
C         5.58189058254136    9.87603358621412    3.99609282015492
C         6.18874802051398    8.66389329103264    3.71005575388596
C         5.57208041079393    7.70498209697897    2.91968628355651
C         2.35775001278685    9.56181020406252    2.06460819774943
C         6.24611619929445   10.89422456051594    4.87223262391453
C         6.28474608724538    6.41226817410878    2.67029573992200
H         4.51608930485610    6.07595115918809    0.84721412171733
H         2.33052178441666   -0.75728686284207    3.03015374254331
H         0.90941505223489   -0.40851657908120    2.05030365755652
H         3.49350109306298   -0.06908276427759    4.94420713595863
H         2.44439901540840    0.29163270649030    6.31260735214663
H         3.80263698690735    1.34835541897713    5.95794970893296
H         2.97197016858174    3.44771416765161    6.52958516251094
H         1.36266717897209    3.08658227602065    7.16155417910911
H         1.63991606209807    4.57589212439886    6.25238552194213
H        -1.33939476164515    3.66924899456532    5.31635232270053
H        -1.22408264133967    4.34146143621157    3.68836657928554
H        -0.21777081179462    4.99227357882280    4.98358737966891
H        -1.75673782154279    1.32298226705854    3.37181613826105
H        -0.91298255923047    0.92582685736697    1.87554543765639
H        -1.46819060551605    2.58189191257839    2.17627082831101
H         0.46159713624698   -2.27990171953078    3.61265325954134
H        -0.56215679556273   -0.89671576359595    4.01192525230857
H         0.86088232483083   -1.24927005327507    4.99022535531570
H        -0.25713787425965    3.91262901537678    0.36276422581728
H        -0.34229096746471    2.15691172176627    0.12288354143118
H         0.20887160216379    3.20337082922881   -1.19745730625946
H         1.91159059120034    0.51073278156061    0.11306110231385
H         3.44307672602905    1.21672371743630   -0.42251799709871
H         1.98854941607956    1.38737951008853   -1.43453547050981
H         3.74608830828436    4.18977613128557   -0.50800899084023
H         2.23196581746749    5.09618238137163   -0.41040366708907
H         2.44832901408050    3.86460972466938   -1.68525991873311
H         4.23293262434168    0.09257971271937    1.45386863742320
H         4.63815959408166    0.01760169820960    3.17381910969857
H         5.91233861961728    0.35552405500124    1.98612067816689
H         5.53693830230521    3.99864952928841    1.00878061282435
H         5.21774640378177    2.51927299031554    0.08705950687983
H         6.61098356188024    2.59177244428963    1.19085803893053
H         5.28630850922215    2.20462841259839    4.69752552201553
H         5.71402599728717    3.74423104231665    3.94767085132708
H         6.66899702160920    2.28653199758227    3.58348596897481
H        -0.90773413852303    8.18503100345590    4.01988692712655
H         2.29472811075146    7.95825871156848    6.81943491144867
H         0.31822262255261    5.47525320443431    1.94728125671502
H         0.49992408783005    7.12432108342779    1.35625069273130
H        -0.99192878367047    6.66584198921594    2.18677682066302
H        -0.95809731974644    9.58649096970054    5.93462197184496
H         0.57444095799047    9.94007529954941    6.74637315570165
H        -0.44563082255849    8.62755231074425    7.32640999575797
H         3.88833992161130    6.09935947924952    6.57438918690766
H         4.63819655364648    6.95999315424774    5.22894922691824
H         4.06735478076346    5.30051850947018    4.99584729686863
H         3.84821166102905   11.07114003849744    3.64934807543899
H         7.16854393816467    8.45300414310801    4.11823559657205
H         1.56363941175226    9.26457931136804    2.74889613957193
H         2.19887133624331    9.05641891080539    1.11291994691039
H         2.28981113931932   10.63689143628726    1.90939857949851
H         7.26303204326282   10.59627537306281    5.11595048405089
H         5.68799909800974   11.01193098429865    5.80114770107284
H         6.27416205073027   11.86358290466228    4.37682360868068
H         7.11531944381615    6.28970789307106    3.36252515801262
H         6.68360019492107    6.38428942056363    1.65432670437967
H         5.59469970409195    5.57614254245796    2.79371257074294

