108
CSD_code = ZEHXER | q = 0 | S = 0 | Stoichiometry = C49H52N5OV | MND = 5
V        10.92688519678828    2.48477000605330    7.07548341094969
N        11.43594744965229    3.64293379240445    5.70198809633954
N         9.37776745462163    3.02473463564080    8.01954276349961
N        12.11487044725247    2.82514376053594    8.09959898663089
N         9.47238899513402    1.99528853521710    5.63175345721611
C         8.25307515918731    2.35006006184180    7.60782159608773
C        14.38149340247144    2.28585469062258    8.51847887208392
H        14.38255551299534    1.67681942618055    7.63005241904303
C        10.84593733639782    0.10041748982233    5.66587775217429
C         7.17976657876339    2.68599981496926    8.38807496491053
H         6.17445555052303    2.32005542581425    8.29164813935100
N        11.33768778810775    0.64358628360505    6.82662344852072
C        14.69733555028608    3.23770997633004    5.52261306967842
C         7.65877767935919    3.61678084955538    9.33676241528232
H         7.08320039547758    4.11276541924395   10.09543672580957
O        16.56151554232682    3.31734892852338   11.29331450416206
C        10.87636998260597    4.93237330818421    3.94433327153278
H        10.31765528225216    5.38348978158449    3.14573368985376
C        12.21601603894224    5.21397088372833    4.30898009761175
H        12.87626552841435    5.91057149057132    3.82784225279441
C        10.14867578301750    4.65868127979077   11.13078824976188
C         9.84237858697844    4.79593305167201    9.77293901368275
C        13.20043971943718    2.97458526650521    8.85047433655133
C        13.86897516180248    4.26960431712501    5.97350553777141
C        10.19931882651865    5.97174357511485    9.09995435203993
C        10.44012943009317    3.96728437055427    4.80908828049716
C         9.00049741917053    3.80282420995172    9.08349885346532
C        16.02025464578211    3.19669562175071    5.93468911786107
H        16.66365822118351    2.40591678235184    5.57311288172858
C        12.52493921914170    4.40835144090175    5.38032074403767
C        13.96393664850546   -0.60119081776547    8.96255872559102
C        10.82514038630918    5.68290229200690   11.78308359183720
H        11.06008818290624    5.56862538562310   12.83228743380028
C        12.61731004433422   -0.24557698090356    8.81618990882482
C        14.36969982591057    5.22792883685919    6.85689077809783
C        10.88378783267154    6.96753331157761    9.77802389082584
H        11.15763408668894    7.87235384960897    9.25351866952499
C        11.96617976849251   -0.37311756524445    7.50299885166558
C        11.86668912862846   -1.53680839318446    6.76917797997503
H        12.24303035474514   -2.49996662655242    7.05551358979550
C        10.41051821898244    0.39363688243120    9.86231590573496
H         9.93640234727254    0.18058447517669   10.81886926751641
H         9.95608982450865   -0.23974293809504    9.09978058251408
H        10.22408707697691    1.44017824016416    9.61144082643105
C        11.20686336700107    6.83904621658004   11.12213727456843
C        16.53559256002173    4.15240786195391    6.79776197116514
C         8.36423268076994    1.46561897729260    6.40987660106386
H         8.59596820213712    0.42924141169295    6.70032176642171
H         7.41895473267402    1.44581928069531    5.83845200480011
C         9.14523117677429    3.23464149367713    4.94231020068107
H         8.43279007676198    3.80740285769273    5.55460696432377
H         8.67426193134792    3.05890201447964    3.95937833553564
C        15.69318466077487    5.15130708706457    7.26134382001670
H        16.07868359115264    5.89203191731581    7.94798037024294
C        10.07517250566511    1.00108524143694    4.75931930978402
H         9.32555268297292    0.43965953090603    4.17426268482714
H        10.74227334944896    1.51192724232532    4.04773978048327
C        11.14458608502813   -1.23451281660228    5.59469910651231
H        10.88375626243365   -1.91118147535803    4.80236486635708
C        15.51044472803152    2.38339795340880    9.29814368504293
H        16.39033666449899    1.83447223148188    9.00530664750780
C        13.47644297508922    6.31067274564962    7.37725462820327
H        14.04177142516254    7.03046564102624    7.96370624872170
H        12.70709272513547    5.87051757339796    8.01126774978076
H        12.98275292755687    6.82854052733839    6.55739274805848
C        11.88706135373784    0.14482156104959    9.94456599006256
C         9.80853823046237    6.16916105693319    7.66553242634241
H         9.99439436335559    7.19413894987438    7.35307136268702
H         8.74927095312534    5.94739837322251    7.53101132954615
H        10.38441422987671    5.50125901271326    7.02256459121649
C        14.14789215439883    2.18180380612860    4.60832877434618
H        14.93245614903280    1.50382144876682    4.27979170558382
H        13.68835533117714    2.63913001551442    3.73194656133775
H        13.37979231607768    1.60394067028079    5.13091376089084
C        15.51015157839129    3.17605175524186   10.44299173934850
C        14.56705160953230   -0.49364217800950   10.20668191154861
H        15.60787044901783   -0.77042670953418   10.30954347178402
C        14.78581175923105   -1.08915154795623    7.80442617288371
H        15.82087596187068   -0.77153617363345    7.91312239939890
H        14.39509811574403   -0.71941483391160    6.85987344220379
H        14.77391179221311   -2.17862709978047    7.76822761408264
C        14.35412633513684    3.89167433788374   10.76824387470085
H        14.36713600036891    4.51615515720243   11.64788513485597
C         9.82222897426933    3.40798892846932   11.89134263215315
H        10.67304821680242    2.72738066010719   11.84067174851563
H         8.95650251624676    2.90418189283662   11.47192812738326
H         9.62972472817234    3.63614701916875   12.93753507241837
C        12.52887548714161    0.26309692326091   11.16752097478480
H        11.96100222862426    0.57750541650820   12.03264666556852
C        13.87496989347293   -0.03347428514741   11.31485359425259
C        17.97901182650342    4.12198981271875    7.20390874637781
H        18.57556128439654    4.70967929845799    6.50503737902118
H        18.36548243194440    3.10486158782278    7.19784046147616
H        18.10911269836125    4.55069239126839    8.19536192786835
C        13.22571074030213    3.79764711143761    9.99402157765872
H        12.33864057908172    4.34958329697244   10.25355494912157
C        11.96382607792149    7.92235517960696   11.82882920372744
H        11.86152535673483    7.82983457549852   12.90726909194667
H        11.60856452167755    8.90449080765518   11.52369801014105
H        13.02329266393368    7.85705020849087   11.57898385581215
C        14.56425356271005    0.15503763124456   12.63216005726528
H        15.41046753326010   -0.52136726045583   12.73174060190262
H        13.87846258948330   -0.01486286230331   13.45892184260483
H        14.93389409209800    1.17866148581361   12.70760869275486
C        17.71986054400222    2.55151064669839   11.06083226000170
H        17.49589952812240    1.48045005964205   11.06625982737703
H        18.39722154044333    2.78356808255902   11.88142619921970
H        18.19577877947926    2.81883584837621   10.11251617066338

