109
CSD_code = ZEHXAN | q = 0 | S = 0 | Stoichiometry = C49H52N7V | MND = 5
V        -0.35900611028680   -6.62778327958667   15.53116428099593
N         0.55208269763405   -7.82959671613699   16.26068554014901
N        -1.48195241257128   -5.10359995478945   14.66982089844021
N        -0.65794474336173   -5.56485683253898   17.06081375860164
C         4.41360340446011   -6.65459508015439   17.11385995263207
H         4.67759816936869   -6.13228658639531   18.02330974198914
C         0.37309762938005   -5.32943657530388   13.23789091629571
N        -1.79030869808332   -7.63020972045462   14.92412934405665
N         0.89024811547047   -6.02694152268786   14.30109110164155
C        -2.95909485576222   -6.94358771723115   14.72505775140376
C        -0.97739837325139   -4.25452551716192   16.80536690893138
C        -2.88489743735475   -5.45736361271363   14.87446273262883
H        -3.17719558482076   -5.15479881654275   15.89112823659815
H        -3.55329011240288   -4.94194963267220   14.16426100379292
C         3.48131352701270   -6.09343684584705   16.25324438224253
C         2.57250822207885   -5.50349413131964   12.92161237909725
H         3.55864147147413   -5.40649563847894   12.50791713000415
C         3.43254438482210   -8.69619557008555   13.49127010855701
H         3.65091673531661   -8.08096846943598   12.62076851670966
H         2.36667642522041   -8.92227798265339   13.47910125824468
H         3.99310541851118   -9.62463040141735   13.41237527959488
N         1.82992182299933   -9.10798058065894   17.65183023149530
C         3.78509791108386   -7.96952609003841   14.75467259792576
C         1.37417112426831   -4.98629322172626   12.36988083800973
H         1.27530200400380   -4.43376303810586   11.45420557039587
C         3.16062004508814   -6.75775690562298   15.06564520256947
C        -1.10163882459718   -5.07901456453491   13.26104615161286
H        -1.64113622633070   -5.88302840491289   12.73874855704294
H        -1.36098583327126   -4.12464208231964   12.77284360413343
C         2.23995393744814   -6.12827517674124   14.10147096389022
C         5.03527761798807   -7.85976354581358   16.82268551193040
C         6.04674002907197   -8.44571807904789   17.76068963423690
H         6.10127065475994   -9.52543257236574   17.64207126678993
H         5.79072566385282   -8.21854538141545   18.79302568275821
H         7.03367953285136   -8.02830203681143   17.55737844910502
C        -3.96711496537176   -7.81724655789653   14.41226596743631
H        -4.99277469078262   -7.57418928197329   14.20622570228460
C        -2.05234633539385   -8.95468575337262   14.71737615164810
C         0.74797310062442   -7.28927999814217   19.81564078314064
N         1.27482824233421   -8.69335125554368   16.61812101672318
C        -1.00678654168899   -9.99329288402222   14.64118844191166
C         4.46155700838627  -12.34261568646011   17.70291921585077
C        -1.37026033211483   -9.07862577431936   19.86929859124181
H        -2.20396036647144   -9.76703566128671   19.90255984968756
C        -0.34632592828261   -9.01462672623679   12.41977989688126
H         0.04994481358907   -8.06326811814299   12.78396735447310
H        -1.39329298131851   -8.86675141902406   12.15407019866354
H         0.20614198072599   -9.29928991839440   11.52695448691408
C         1.92464803945482   -6.36409151381024   19.77639719208599
H         2.56060248061437   -6.64609659827618   18.93759765407795
H         2.50759687237358   -6.44088085749153   20.69179121873064
H         1.60989564577221   -5.33344019689843   19.63782470287882
C        -1.11725580867739   -3.87311122045176   15.36788068049882
H        -1.86507392631265   -3.07499138030765   15.22608989513280
H        -0.15896934326039   -3.51326769307489   14.96297435655082
C        -1.48803103915395   -7.90680081099225   19.13688081698342
C        -0.22465368330916  -10.06744141919022   13.48273203628083
C        -2.76765235570711   -7.59347799443407   18.41736041201536
H        -2.63024875604357   -7.69376870596848   17.33826140626383
H        -3.07800379494663   -6.56979731491255   18.62750331987642
H        -3.55974431594790   -8.27207254617970   18.72612907273326
C        -3.38533134080765   -9.10815761798250   14.40550729782824
H        -3.88220432644488  -10.03172738529048   14.17488018300334
C        -0.86817689642199   -4.50095802144158   19.01603949610140
H        -0.91041265391487   -4.31046782785902   20.07187874770706
C        -0.41652091860318   -7.00728417763154   19.09819641981456
C         2.99302070498700  -10.90028752325935   16.43964610381695
H         2.54088648668946  -10.60449786619723   15.50606383905329
C        -1.66326081420605  -10.87014120038077   16.90030827248056
H        -1.61883360479627  -11.80183281800432   17.45871928483819
H        -2.70268261121851  -10.62772524983509   16.69185997703084
H        -1.25219190962829  -10.07478807931262   17.52311698807135
C         3.87982132522180  -11.95188504429347   16.49797698252321
H         4.13902741672417  -12.48443990542770   15.59381013513948
C        -0.21634715400139   -9.37451401969236   20.57960308778841
C         0.82653407457394   -8.46322323372672   20.54949989298209
H         1.72120084324071   -8.66331401470277   21.12324271551799
C         5.42525483692828  -13.48811867916666   17.73537166074128
H         6.27587849917223  -13.28817212880717   17.08433530032048
H         4.94469090890488  -14.39851006540681   17.37831094244725
H         5.79271231927071  -13.66208794013516   18.74335603512534
C         4.71578394030862   -8.49963688252810   15.63459055783266
H         5.20490990637110   -9.43230168242289   15.39083102140467
C         1.63390951034014  -13.32473947531792   14.03355126440310
H         2.52028095176810  -13.04410216437761   13.46795230825272
H         1.09449944761507  -14.07686533698219   13.45596623311036
H         1.93685346591100  -13.77519339065056   14.97598778589832
C        -0.59718065725408   -5.71197729154770   18.41598520231599
C         2.67027282048772  -10.19629778088672   17.60510955602900
C         0.64005283156353  -11.13795210054783   13.31263788029101
H         1.22572985296434  -11.20730084679570   12.40574206215095
C         0.74993518275552  -12.13710095883266   14.26954681915820
C         0.00171467419958  -12.02618510724093   15.43199919491910
H         0.09534058228648  -12.78547660779556   16.19614121550267
C         2.83506172005757   -4.77964830810722   16.57997422048800
H         2.85160311965298   -4.12324063793953   15.70957836997103
H         3.35049696662644   -4.28878633174436   17.40213508147215
H         1.79293572865132   -4.93782883997696   16.86963332391808
C        -1.10905516268026   -3.56578801985224   17.98153692869525
H        -1.34828171453908   -2.52518750677057   18.09819840645388
C        -0.87624482156928  -10.97078256844519   15.63060779822123
C         4.12736646313165  -11.64563942504049   18.85946050754477
H         4.56965579394377  -11.93639838830470   19.80168419771600
C        -0.08918602052013  -10.65619957918316   21.34709898947737
H         0.45695191761827  -11.38969230107879   20.75172346638486
H        -1.06749062856560  -11.06927142851901   21.58188824561624
H         0.45947479631419  -10.50079610936538   22.27404855543744
C         3.24751762369536  -10.58472660824958   18.81670218247001
H         2.98978617204526  -10.03458195241661   19.70634935705218

