102
CSD_code = ZEHYAO | q = 0 | S = 0 | Stoichiometry = C47H48BFeN2P3 | MND = 5
Fe       12.66604971627625    2.46073099101720    2.63014976023875
N        13.07511763049241    0.87071387167436    2.14232009472145
H        13.37027240308758    0.15105265623806    1.47809908914162
P        10.87526892387830    3.60991463119465    3.02415211802725
B        12.31329205247004    5.96696761855237    2.03824536505762
C        12.12278460528972    7.56630433031643    1.83349401533911
P        12.97336080498611    3.41757331535738    0.71196940607929
N        12.71867672923858    0.44015798392475    3.40918235914875
C        12.07793254337977    8.18854669231557    0.58705083791522
H        12.19025022326113    7.59667415308225   -0.31033637831124
P        13.74848693222700    4.00891186438221    3.68676375662791
C        11.88865379928492    9.55288283261075    0.44727039309404
H        11.86099420096851    9.99500408042792   -0.54040172082529
C        11.73329649391497   10.35318179558131    1.56417494510633
H        11.58577976747084   11.41946300788204    1.46055061376226
C        11.76665433492454    9.76669146149025    2.81725876717148
H        11.64298303300440   10.37739875701049    3.70242750273702
C        11.95596373650563    8.40276736254442    2.93873099678012
H        11.97158500629680    7.97706739717701    3.93403000111253
C        10.91035086445484    5.40752738023427    2.73211131422965
H        10.03651670054518    5.67826103878876    2.13122801377319
H        10.77307341731603    5.87618756785188    3.71118921198553
C        12.57782762417110    5.19810968108717    0.59586800860308
H        13.38673679828990    5.67156401991384    0.03118278066447
H        11.67842778894122    5.25783297502794   -0.02643470486025
C        13.60728666530494    5.71017297392156    3.04602608178710
H        13.61772996666316    6.39277117772581    3.90035671625573
H        14.53599222913966    5.89590981476560    2.49639755099109
C         9.43853622437680    2.99279865717009    2.07096358346836
C         8.68874142481917    1.92542043086983    2.56026081325486
H         8.90387926497186    1.52950837190972    3.54458825793973
C         7.66264490203178    1.38510186231886    1.80762611915700
H         7.08252364530487    0.56192422506805    2.20105946659875
C         7.37696577201369    1.89684951982750    0.55210711579714
H         6.57494953905981    1.47396778070543   -0.03518070454076
C         8.12321952988721    2.95160872500538    0.05383191265793
H         7.90807541882406    3.35092401985892   -0.92685819384240
C         9.15077903725714    3.49113584048877    0.80481991674004
H         9.73638082024874    4.30643797090763    0.40697868213284
C        10.18905592525735    3.42527117268684    4.71132699066647
C         9.09706421596732    4.17203169441594    5.13977551900961
H         8.62616189703082    4.86804381108495    4.45900649287576
C         8.61886252596268    4.02198392063786    6.42807489169159
H         7.77312109482896    4.60684687162680    6.76065594957090
C         9.22143095471089    3.12398444948806    7.29516474517463
H         8.84812698857792    3.01400314288041    8.30298647580579
C        10.29980938755211    2.36684467341719    6.86923133099858
H        10.76918185657947    1.66556385167141    7.54474598716322
C        10.77958160832784    2.51788291701985    5.58147643750877
H        11.63157287294217    1.94474808689925    5.23456171853843
C        12.06086300142593    2.69636125320755   -0.70176920386515
C        11.19348716096336    1.63000419819389   -0.51065912438272
H        11.07756431436244    1.22398722622705    0.48645877562048
C        10.48489273668301    1.10153700666472   -1.57515687118387
H         9.80677405862160    0.27492799927683   -1.41597308374738
C        10.64064222010056    1.63764609265276   -2.84176885684867
H        10.08759179450876    1.22813541049649   -3.67467336886965
C        11.50839399909229    2.70066203903335   -3.04216778664955
H        11.63208466778175    3.11608683091414   -4.03213953286823
C        12.21460826588742    3.22893275778820   -1.97865976309335
H        12.89507356618754    4.05595716950165   -2.13063666476270
C        14.66502952645766    3.24083412753294    0.04449896325394
C        15.01450720508247    2.03509512794761   -0.56139316556839
H        14.25595494230177    1.27534686586244   -0.70035391615662
C        16.30702744325463    1.81119761846187   -0.99338329397014
H        16.56276800528595    0.87512197210399   -1.47036107585009
C        17.27705744890948    2.78522773529012   -0.81484230228450
H        18.28894796282740    2.60994467963747   -1.15015651723098
C        16.94315239578485    3.98178502326776   -0.20497529628344
H        17.69651157265028    4.74247036272452   -0.05842853700068
C        15.64775063829394    4.20740199713155    0.22463386175822
H        15.40133860923525    5.14264492517693    0.70412458146706
C        13.49514418629254    4.14447532767787    5.49272734340610
C        12.63167841632856    5.07472024960673    6.05937781460092
H        12.14804404415903    5.80831989550115    5.43243656491335
C        12.38570353638343    5.06713344960187    7.42002638415851
H        11.71343026266091    5.79671507769774    7.84830254533401
C        12.99265215853799    4.12485706325833    8.23242109438930
H        12.79885610994899    4.11933006202609    9.29513127282986
C        13.84823905347485    3.18691410025644    7.67691425027764
H        14.32408986290902    2.44880490190732    8.30765377808735
C        14.09151714805909    3.19273031126100    6.31728462969155
H        14.75765458735497    2.45856777022775    5.88172973502331
C        15.55906793403648    3.71909278167857    3.67678698539530
C        16.09453833758155    2.67114222088022    2.94105721265999
H        15.42350402569718    2.01687257792058    2.39689342626750
C        17.46375527616519    2.47945348977984    2.88658187700940
H        17.87232754257086    1.66492276302004    2.30537522683124
C        18.30767865020951    3.33759693768362    3.57018555711031
H        19.37740032249263    3.19266334765537    3.52741592497564
C        17.77990781801532    4.38558947431286    4.30947607264411
H        18.43987411764826    5.05483928431754    4.84274949933643
C        16.41281606129877    4.57783826077691    4.36311720281639
H        15.99589538322014    5.39402990690584    4.93767865128531
C        11.55143996248797   -0.43796948137734    3.43395714147742
H        10.75816799728837    0.01275374090312    2.83736174834472
H        11.20019523708917   -0.55306131614267    4.45823737615651
H        11.79332359983272   -1.42951195713998    3.02644138350667
C        13.81456593943118   -0.11098151898801    4.20196600396024
H        14.11587307600873   -1.10015767236870    3.83015452460760
H        13.50000238178675   -0.20474425102155    5.24047786723803
H        14.66592553700841    0.56653135502488    4.14830267945488

