72
CSD_code = ZEJGIG | q = 0 | S = 0 | Stoichiometry = C34H26N2O7P2W | MND = 6
C        -1.47506648008494   22.54292607851549   19.79245875734887
C        -2.62685421830030   23.21088216413097   17.98114818139977
C        -3.01906197355383   23.99461391658938   19.03555957642211
C        -1.07324120504123   21.32355735248754   17.66717080104002
H        -0.68329631844348   20.53408293576771   18.30870510486483
H        -0.26075183495589   21.75027930723360   17.07654780994296
H        -1.81366814337746   20.90772640448434   16.98207436341717
C        -2.35105586182826   24.18325902840383   21.42159504005694
H        -1.35102146624623   24.20495526102172   21.85712987925265
H        -3.00987517244562   23.62458444538164   22.08977590753648
H        -2.72634873845301   25.20136892379723   21.33130878609433
C        -3.57725814875136   25.00180793939775   15.89541578017102
C        -4.76221830532630   25.21365133464774   15.20965119840878
H        -5.37188412271149   24.37278550905612   14.91336216534769
C        -5.16437299568049   26.50788303749473   14.93302771911062
H        -6.09431711020947   26.68062540474588   14.41170651042228
C        -4.37857907839120   27.58084394779586   15.32050202541644
H        -4.69732863253840   28.58958639926209   15.10208655051808
C        -3.17892649690345   27.36515214174099   15.97797793031896
H        -2.55996531931907   28.20178048017771   16.26826371653780
C        -2.77770265915089   26.07388950114434   16.26588659565732
H        -1.83374119723247   25.88337960064192   16.76001133604861
C        -4.11140040375134   22.08394040581714   15.76588526604445
C        -3.76644613234630   21.16935922427192   14.77932685706825
H        -2.80250815154050   21.26233954666949   14.29871262875994
C        -4.65337106942936   20.16719095741896   14.42879488501307
H        -4.38887954806954   19.45457100635555   13.66169369960111
C        -5.88106697110298   20.08168852168006   15.06547185341753
H        -6.57448035329878   19.29935738065135   14.79386706065461
C        -6.22507411507584   20.99809779862477   16.04804915712059
H        -7.18584790837095   20.92974396897237   16.53685289890430
C        -5.34324929829488   22.00216450126938   16.40380922190043
H        -5.60486562838259   22.73125107163375   17.15488525103621
C        -3.85217936654524   26.81308233348944   19.13317370086732
C        -2.54144920178495   27.17915855000351   19.40315716676132
H        -1.78928390768901   26.42680916502704   19.59376671111881
C        -2.19204415060576   28.51815025839790   19.40143564282039
H        -1.17138281831982   28.80571275944677   19.60602208746746
C        -3.14579267464874   29.48696793808833   19.13429576462148
H        -2.86650780700251   30.53009710814574   19.13455616567143
C        -4.45366744752839   29.12057439830274   18.85762513000684
H        -5.19435445316407   29.87608289050356   18.64201520146014
C        -4.80586041372706   27.78401016701153   18.85505346980415
H        -5.81422330119113   27.46935744186473   18.62519967056993
C        -5.21257763490476   24.73803005359990   20.71337611460058
C        -5.60015581405935   23.42072434840000   20.92539936749435
H        -5.38742830515456   22.67953316713942   20.16536603328304
C        -6.25001721191708   23.07132258055110   22.09414856530550
H        -6.54430797895984   22.04658358266337   22.26439906676936
C        -6.52310745346713   24.04189138476185   23.04571376085373
H        -7.03156229030087   23.77154959841538   23.95884913433757
C        -6.15126391405255   25.35807554380325   22.82661502350183
H        -6.37334104411718   26.11301377438337   23.56606528897690
C        -5.49424587936014   25.71074805229017   21.65995145104982
H        -5.19851864995004   26.73644596769729   21.48533668563365
C         0.97277026942433   20.33720189556935   22.40502911157268
C        -1.56962001845061   21.40139007712189   22.59159949421507
C        -0.98946697340789   19.66552444898880   20.57330506018168
C         1.29864540855971   21.29807357553361   19.81676464300511
C         0.73663364190698   23.02330186969763   21.86516833805875
N        -1.69235626551876   22.33746811985297   18.47650019566619
N        -2.28907809924688   23.57026187640798   20.12248558822362
O        -1.60302231859097   23.19554346220087   15.47167141111186
O        -5.41907077332798   24.83691220922808   18.02145114649270
O         1.62694261124976   19.73188675858240   23.12145728113969
O        -2.31540690226073   21.31072632300014   23.45584687832445
O        -1.41837205469245   18.63094983044347   20.34042016457586
O         2.20898188568304   21.20642296539444   19.13337250825525
O         1.35495886611922   23.87644354500542   22.31363875138099
P        -2.88140753084545   23.35075108946230   16.17891494344817
P        -4.45327884672971   25.09912863218055   19.09408146902958
W        -0.17325612267097   21.38906676015319   21.16745729750557

