49
CSD_code = ZEJGAY | q = 0 | S = 0 | Stoichiometry = C22H17MoN2O6P | MND = 6
C         2.96218218302780    9.45741916548477    3.64840748343157
C         4.42231734758006    8.30763593989898    2.38475648541096
C         4.19198103921066    7.58891313064594    3.51497572648754
H         4.59293794685433    6.64368448172613    3.82242240704326
C         3.66634915207360   10.46578765509572    1.48480361823270
H         3.55032949815699   11.44835674566032    1.94293201115314
H         2.85372007244961   10.30689075352158    0.77080520344479
H         4.61684979561857   10.42938733737291    0.95165868739101
C         4.33477672252790    7.87280115041820   -0.44049882092056
C         4.84921638901301    8.18606427885875   -1.69079532649848
H         5.88587325021827    8.48263050723007   -1.76595390773060
C         4.03474017117837    8.12905755430958   -2.80730337203039
H         4.43285806897099    8.37369796432213   -3.78063822713858
C         2.70622572001145    7.75960229521493   -2.67219494787331
H         2.06740148300598    7.71619781336890   -3.54159808472344
C         2.19061966821939    7.45137891627677   -1.42298189516421
H         1.15239497145443    7.17223748599144   -1.32036102489600
C         3.00238043693112    7.50500776383935   -0.30463506605372
H         2.59802841210431    7.27588392630224    0.67217298281756
C         6.04383561836266    6.25276449659612    1.27377585355151
C         5.16433728235005    5.17820491058113    1.32094093753904
H         4.10714548370325    5.33939774529650    1.16867360699249
C         5.65279249251645    3.90674331077799    1.55681048103315
H         4.97371394344208    3.06757885995726    1.59447681320008
C         7.01282628217538    3.70634089531037    1.74127538137413
H         7.38809589108685    2.71035879941250    1.92399497725160
C         7.88990734099501    4.77691606626648    1.68567235293731
H         8.94889212603885    4.61762455920821    1.82387001880406
C         7.40539338820133    6.05136939219058    1.44886747584387
H         8.06643961989781    6.90417733328591    1.39382189326827
C         2.85300749864433    7.86824850893086    5.56159840205393
H         3.10909736675959    6.81809802234899    5.69575680451054
H         1.77216406497610    7.98715488150652    5.64674647501556
H         3.33288105782277    8.45037382250831    6.35152145240870
C         0.12257468192471   12.22306800384289    4.84726453487941
C         0.13257966385803    9.52230186393911    4.58287888731641
C         2.07120330559849   10.85275243872891    6.16084016517939
C         2.71394541937259   12.43292591962110    4.04150500416646
C         0.77859627324495   11.08315156520998    2.45988692334013
Mo        1.47551516373249   10.92410018080551    4.28972883356202
N         3.66453888245045    9.44941083731388    2.49950277957102
N         3.30461953012142    8.30155309277777    4.26769528078103
O         6.59017439445479    8.90937429659700    0.78273207947331
O        -0.66956079640375   12.97686386325295    5.17252202917062
O        -0.72908688534820    8.79223152664935    4.75910836076440
O         2.33591214618449   10.90316616643669    7.27013697302704
O         3.34572929411029   13.37915333912773    3.95942034898998
O         0.28047848986993   11.22715118709442    1.44266396629214
P         5.49186865124472    7.95340924889200    0.96083697531862

