34
CSD_code = ZEJGUT | q = 0 | S = 0 | Stoichiometry = C14H12FeO7 | MND = 7
Fe        0.27730842132570    8.72699940629136    3.44895127781836
O         2.10656955726751   10.12678437618560    1.67842050559892
O         0.53950131727414   10.86293892035833    5.40729410504803
O         2.22616439493506    6.90277106054880    4.65598181634504
O         0.24101732082119    7.25242803081616    0.69683681565321
O         2.22785811100196    6.81719447742799    1.65162533837771
O         5.13741099985662    6.45666485793236   -2.43683899724696
O         3.12653618398583    6.77108398905756   -3.38356555668282
C         1.36061896583499    9.60803700984731    2.37435594284908
C         0.39690269602341   10.03370726871937    4.63015158191493
C         1.46881902649239    7.59325740020973    4.16248720290450
C        -0.37811260503647    7.34161957229766    1.96523188551451
C         1.54922243993625    6.97561603361951    0.66436794205509
C         2.04078042417476    6.91267462774424   -0.72568723910311
H         1.30988669942169    7.03924524452765   -1.51130188084601
C         3.32923579115160    6.71687984224959   -1.00458992536881
H         4.06349512929885    6.59494438088975   -0.22206943768802
C         3.81605336224897    6.65873845378906   -2.40143614622401
C         5.72458032676734    6.37921952512953   -3.72758646817893
H         5.31672982465620    5.52913377122769   -4.27858379952985
H         6.79264312939900    6.25581003891065   -3.56972645136078
H         5.52087070915483    7.29168802042342   -4.29166983464884
C        -1.35624875590028    8.38462560565388    2.06258305234254
H        -1.62832798169241    9.00023833512181    1.21484102478348
C        -1.87060119720233    8.55666808209248    3.35272098756422
H        -2.57770239725921    9.34259387866843    3.58906222600602
C        -1.34567958116901    7.64886460086820    4.32655339101487
H        -1.68080413999343    7.80773633920615    5.34976819894812
C        -1.31414907035971    6.17269533970436    3.95679429211210
H        -2.33921721424874    5.78860317758802    3.98137139349567
H        -0.74269349217229    5.62320471931341    4.70503173882779
C        -0.70557194786588    5.97964774304493    2.56340828955698
H         0.20923090100421    5.38706273108926    2.61050153189807
H        -1.40112734913419    5.46602313944052    1.89161519624823

