71
CSD_code = ZEJHUT | q = 0 | S = 0 | Stoichiometry = C30H32N2NiO6 | MND = 6
Ni        3.84420689607637   -2.93268624622052   13.11652719118776
C         2.62063408277953   -5.36168721356048   11.80328998374353
C         2.09746585835118   -6.69603356186375   11.83290579237625
H         2.17767960163745   -7.23186207931371   12.76759135274167
C         1.52726218726619   -7.25770825344304   10.74386140776891
H         1.14285333281258   -8.26762161582380   10.78589875472960
C         1.39378357648457   -6.53904859345125    9.52646908173377
C         0.75042296742756   -7.12417007243855    8.42461978064017
H         0.38040357315558   -8.13526372368142    8.52114517732435
C         0.58407685320428   -6.43251895201498    7.25359291883530
H         0.08929456891705   -6.88712768715008    6.40845544647111
C         1.04766366416445   -5.11917101238889    7.16931991811306
H         0.89591372913585   -4.55731979865074    6.25875491304376
C         1.68519041531799   -4.52980914884330    8.23259612530391
H         1.99464128895985   -3.50101026632237    8.12561273632817
C         1.90567858435776   -5.21962741841694    9.43952212315514
C         2.58906639712883   -4.65032966158429   10.57223976072823
C         3.31736073539737   -3.44409666724524   10.41671568131114
H         3.37933176041453   -3.10416541873200    9.38642400344251
C         4.73281793075831   -1.59205523411969   10.79762953136297
C         5.70877606256418   -1.13110381684305   11.90185518522754
H         6.48503873508254   -1.88852198753586   12.03496454893841
H         6.17226135644105   -0.18326013449271   11.59534758225072
C         3.76528617203598   -0.42535726924216   10.45185581894320
H         4.33048943676267    0.34819558779221    9.92147925622668
H         2.98263801840252   -0.80371297308591    9.77775060892759
C         5.57224477554194   -1.93983759756823    9.55837160233491
H         4.97466596143214   -1.95038913079866    8.65030087880850
H         6.03546529624409   -2.91515923441169    9.68834874457011
H         6.35600414432031   -1.19738789714767    9.43008372048918
C         1.28889265062455   -1.61813537283985   14.04586107510026
C         0.14666761587085   -0.77506259083925   13.84685282851077
H         0.09743291914717   -0.23060998748457   12.91501136294730
C        -0.82568171281543   -0.66775566976374   14.77940103313399
H        -1.67701237281202   -0.02233384558882   14.61168816604150
C        -0.77423182977713   -1.40990669677589   15.98890099183061
C        -1.82164432899166   -1.32270622164861   16.91932043529826
H        -2.65162221763662   -0.66549787600168   16.70078859700784
C        -1.80320263050599   -2.05729186199067   18.07577839638694
H        -2.61077552779813   -1.98620554417430   18.78887655724838
C        -0.73155254420875   -2.91792423320889   18.31613912893055
H        -0.72274688449764   -3.52142679821544   19.21254340568564
C         0.30621155749735   -3.01390302631796   17.42273394087062
H         1.09391759731896   -3.71914164658232   17.64133513558852
C         0.33997457019491   -2.24977720400814   16.24116154068131
C         1.41760469914000   -2.30033622841740   15.28704243465105
C         2.63631115141775   -2.93246944705989   15.64027442472304
H         2.67944911966858   -3.24116732139339   16.68129606122187
C         4.86663395752174   -3.70972866432729   15.62947909537562
C         6.12171018445093   -3.51254861083799   14.75188461117493
H         6.37777640719153   -2.45065085771368   14.72375630172350
H         6.95578080779160   -4.07775760764843   15.19010203795454
C         4.63380954193212   -5.23046826164010   15.85317270916202
H         5.41626335699587   -5.60651593499508   16.52062550000452
H         3.66165240871489   -5.36964486647589   16.34880705781699
C         5.14079409899606   -3.03373817677550   16.98197906323139
H         4.47599806952075   -3.39650398102844   17.76189227111479
H         5.02075467055574   -1.95700139282919   16.88738538473380
H         6.16120390868161   -3.24346325590671   17.29302538358389
N         3.97143722106249   -2.74669114823789   11.29270348597596
N         3.71127303267645   -3.12030875192157   14.93976525178743
O         3.12316845521743   -4.89274977390733   12.87741266289282
O         5.08303690193292   -0.97494522396073   13.15617099468536
H         4.39921562637612   -0.29031357571872   13.02627519274929
O         3.19873683053901    0.20287449934598   11.56425882659407
H         2.63274747383640   -0.45139797225687   12.04387094682946
O         2.15306780690878   -1.68438079977734   13.11043815164461
O         5.92307433189238   -3.91168466737788   13.41379686676586
H         5.70457460790295   -4.86247971124843   13.45194180942682
O         4.71170385913040   -6.00286475014418   14.69110188896211
H         3.98317664573421   -5.73053786371861   14.07991936286817

