84
CSD_code = ZEJJEF | q = 0 | S = 0 | Stoichiometry = C31H47Cl2N3Pd | MND = 4
Pd       10.61247056581807    8.31553468450280    2.34514845966711
Cl       12.57862243118905    9.28645083869055    1.68161320447852
Cl        8.69280198330161    7.22027246367407    2.91034307910703
N         9.12596951058417   10.59602334573936    3.53594371075401
N        10.89362332595377   10.12467665689274    4.66857250019958
N        11.09811307651857    6.73836708751987    0.99973537047519
C        10.18615551672555    9.76979321671578    3.58143166592490
C         9.16681927274647   11.46761564077911    4.59628815365343
C        10.28135774249793   11.17627689745601    5.30374367680711
C        12.13230579353936    9.53487593452114    5.05426412136157
C        12.13370404624336    8.23982269437720    5.59451683408084
C        13.36016958174523    7.68739115663080    5.93955480435156
H        13.40515048453670    6.69376916821100    6.35388737124590
C        14.53473404932274    8.39510224021569    5.76151194124246
H        15.47798397794313    7.94248632159327    6.02990574918227
C        14.50659681404578    9.67854410099390    5.25639600339445
H        15.42944076513367   10.22371292671738    5.13811868812220
C        13.30632606188765   10.27521875096391    4.89135896664545
C        13.29852206404811   11.69574928824796    4.37500819392681
H        12.30208135992978   11.93561658344196    3.99280242401834
C        13.62404011371817   12.65961582802274    5.52087730948020
H        14.62733698008406   12.47657463123601    5.89811656145767
H        12.92587633112261   12.53970149258581    6.34716954340214
H        13.57011560969269   13.68796609465594    5.17047230704643
C        14.27956888455831   11.88985796274293    3.21850121912432
H        14.07545331580697   11.16283588602780    2.43742433085887
H        15.30961157277292   11.77423039485862    3.54418312205139
H        14.16338943707429   12.88899339783417    2.80366580944108
C        10.82908029923559    7.51694806982885    5.86630837548003
C        10.13705419047975    8.15664361451861    7.07689074395479
H         9.91851401297668    9.20829143017857    6.91040891846056
H        10.77311403550989    8.07414009836700    7.95715345959243
H         9.19923403403553    7.64382478080409    7.27717187929351
C        10.98363840110137    6.01869199003134    6.12338089995110
H        11.47214841796904    5.82870172615750    7.07730141506715
H        11.54836245932501    5.53836310576854    5.32984187828565
H         9.99605256981369    5.56429977978677    6.15338598151379
C         8.09719504711505   10.55131907617564    2.55067922827348
C         6.81909584619642   10.13072325503713    2.92832547890050
C         5.83263422635228   10.08784184405737    1.95063648164082
H         4.83810157233669    9.76268111629030    2.21164292077781
C         6.10815379247873   10.45188717883721    0.64922122659366
H         5.33157062677195   10.40439422228434   -0.10006096647275
C         7.37179634364678   10.89130271755332    0.29967992783861
H         7.55813261526610   11.19033475012183   -0.71839807658056
C         8.39271579013210   10.95400203926928    1.23875337832003
C         9.76036223337592   11.50550320115159    0.88669691599504
C         9.93298578123634   12.89965651294433    1.50362385519045
H         9.85038233833623   12.88057594356113    2.58726623560475
H         9.17378984539406   13.57702652650362    1.11495802605959
H        10.91342009840115   13.29389881219057    1.24656055365233
C        10.02628640675570   11.59911448911519   -0.61518500344563
H        11.07452831258949   11.84338203316805   -0.77147121751731
H         9.42462222383476   12.38097648500872   -1.07513475792583
H         9.82321982678813   10.65418869552036   -1.11084543004264
C         6.47375665699782    9.76589521869737    4.35365917175691
C         5.56643324975463   10.84588643312203    4.95296975197997
H         4.62405786986211   10.89415167714311    4.41254659905842
H         6.03446366432404   11.82727892765839    4.90167343454608
H         5.35390764135333   10.61954257591661    5.99544364690423
C         5.80467591040028    8.39400776538625    4.44329236033352
H         6.44240289259847    7.64571194551556    3.98085856349016
H         4.83789685564903    8.38728498050252    3.94757910276686
H         5.65415518626065    8.12749480271747    5.48732261285850
C        10.06829565144750    6.50175459391860   -0.01119313159535
H         9.20946374097010    6.03292327084725    0.48048205120996
H        10.43920943225058    5.81724629065969   -0.79096260948288
C         9.64434077551815    7.83071057515221   -0.62566449701028
H        10.49698235629330    8.31379471489974   -1.10497288631016
H         9.24976876230768    8.48803112036656    0.16586936976005
H         8.86327614011995    7.67655388908417   -1.36623339875563
C        11.50787939196280    5.52433816759025    1.70532244258936
H        11.83132012203989    4.75123880506271    0.98922264580118
H        10.63927243521179    5.14392727312547    2.25599331556327
C        12.63940378108953    5.84963880503866    2.67406890321059
H        12.32649730168859    6.66355558039480    3.34643605567575
H        13.52741344360161    6.17616291647200    2.13349749523677
H        12.89751430177157    4.97551806979428    3.26705665567698
H         8.41537743413301   12.21402939287930    4.75121273668888
H        11.92574728922395    7.12606314134891    0.52921206753117
H        10.68189219727897   11.61907856504608    6.19225700206329
H        10.52660012947415   10.83756907942671    1.30651572178447
H         7.39119954851528    9.71363307858349    4.94675213050988
H        10.17436382187695    7.62608916366338    4.98983523633386

