115
CSD_code = ZEJLEH | q = 0 | S = 0 | Stoichiometry = C46H62Cl2O2Si2Zr | MND = 12
Zr        0.48890611390904    1.96507104563404    2.28661770894383
Cl        1.54255168420181   -3.63589167269559    6.52098754705360
Cl        4.38200919026498    1.51457640282586    9.55936818666716
Si       -0.59975780819306    5.50221969659599    6.32859309210089
Si       -4.21922532950938    1.03033091662202    4.48230801365235
O        -0.92638076915519    0.68669454201790    2.14666278023031
O         1.30877816103357    2.66320366577811    3.86703990808555
C         2.40030843911257    1.48631453542831    0.57388201717442
H         2.64230038553347    2.07717560671192   -0.30067295536454
C         3.01282432162690    1.60391496924399    1.83604294280400
H         3.77132402475944    2.32553849903537    2.11296832762883
C         2.58368325089194    0.51951254520284    2.62989666772074
H         2.96515219992917    0.27037569712150    3.61251147310843
C         1.70077109988596   -0.26322310236533    1.85652441355175
H         1.29026982136994   -1.22547686612759    2.13729502286289
C         1.57908639750163    0.34098149822849    0.58868718625447
H         1.04810844434886   -0.07484091280084   -0.25860558316829
C        -0.04147811184828    3.15856959740661    0.09788754901059
H         0.17621554946578    2.74782477383712   -0.88045202459070
C         0.79419320171103    4.02611280084670    0.84266585518749
H         1.76543631458354    4.39813151354852    0.53708090822687
C         0.05938128799231    4.48254362198737    1.95372078320131
H         0.37115771974465    5.26057249739260    2.63794608513025
C        -1.22321780970970    3.89453574088563    1.90318431854610
H        -2.05748001654267    4.14752647462069    2.54373199573677
C        -1.28572569947986    3.08780959707137    0.75006588489166
H        -2.16739066164734    2.58540115860596    0.37501608214211
C        -1.73328951002871    0.07104388727674    3.08425170938761
H        -2.51693718734316   -0.51204266416082    2.57011708336619
C        -0.92531907589189   -0.88328997375035    3.95223998682531
C         0.17657876270090   -0.39685858725458    4.65078709172987
H         0.44193011408338    0.65591218812928    4.55486085763449
C         0.93767749369184   -1.23932098433211    5.44173779819658
H         1.78834018626693   -0.85905321218197    5.98625073535091
C         0.60082458747806   -2.58260187942086    5.52714246545240
C        -0.47286513497152   -3.08961090820176    4.81413869345077
H        -0.71240020019861   -4.13977421314311    4.87127792757899
C        -1.22810283946836   -2.23710332988631    4.02593591069117
H        -2.04889120995823   -2.63851808070520    3.44912605580684
C        -2.39462490103596    1.12280268272676    3.97488709901597
C        -1.61856494769593    2.12205194346626    4.34895346870591
C        -1.05637038467195    3.13098138684851    4.87287118001795
C        -0.14346787158952    3.99124287309122    5.27828065519504
C         1.28062287628906    3.63270976330107    4.84938340658669
H         1.78311452065548    4.54874738404845    4.48719347047394
C         2.04053432653702    3.14300813539101    6.07348421891430
C         1.55554203802677    2.06859520299956    6.81065574542099
H         0.60099997795983    1.63374507291643    6.55407552996669
C         2.27254752815198    1.55871307211091    7.87789070066925
H         1.89105602030037    0.72498602743826    8.44659914636991
C         3.48340685930900    2.13926787587234    8.22144508442512
C         3.97791066832633    3.21752455066445    7.50614264253612
H         4.92068725659526    3.66219018085512    7.78361192630370
C         3.25583544773338    3.70936269442956    6.43293559282127
H         3.64827630285602    4.54175698455635    5.86757691542370
C        -0.92338504747108    4.93463199492408    8.14876558095761
H        -1.45923612242232    5.74092987973588    8.65906460212009
C        -1.81716228442394    3.69683019825513    8.18592207262102
H        -1.32846214435425    2.86093539434849    7.69183826794455
H        -2.76254997020970    3.88365968634173    7.68284852719980
H        -2.02952436071170    3.40839244522886    9.21458407317798
C         0.35140959731857    4.67000283759481    8.94733599537776
H         0.10188021082649    4.37515892090187    9.96598917736905
H         0.97740596951186    5.55623294127213    8.99931746849720
H         0.93015404963043    3.86937163788043    8.49717134953595
C         0.81471704912354    6.81391311717857    6.36508692123773
H         1.68618988605796    6.31519349820591    6.80486998115389
C         1.24762080851538    7.35544691053270    5.00327440793724
H         0.45431451773354    7.93769531858802    4.54493535342471
H         1.51788542474962    6.55551136494698    4.31975305571175
H         2.11498020554858    8.00516471055015    5.11824289745331
C         0.45399643496425    7.99442212981666    7.26842514896272
H         1.30393634691927    8.66784683988140    7.37234631878572
H         0.16116268558815    7.66170177636150    8.25996044735326
H        -0.36995173603360    8.56109371435578    6.84179620545354
C        -2.29377498689774    6.08874009396967    5.59715165221017
H        -2.83665796203701    5.17234745132793    5.34305129300339
C        -3.15624230805354    6.86700550710531    6.59005677025025
H        -2.65322910160415    7.77309028359775    6.91787491887901
H        -3.38625127982533    6.26812384780201    7.46627842936374
H        -4.09727064108607    7.15658003876570    6.12339458757072
C        -2.16343889125270    6.89481173188966    4.30513280646764
H        -3.14092107219582    7.03064419223980    3.84367367453842
H        -1.52059778509904    6.39132876977789    3.58948181414511
H        -1.75610980822846    7.88181718835389    4.50915775704054
C        -4.36008576849443   -0.14805667248840    6.00866186732013
H        -5.31189142152638    0.05581936490203    6.50781542397745
C        -4.35363965318401   -1.63149165787325    5.64911278977893
H        -3.41040144573200   -1.90408833414140    5.18483432840678
H        -5.16491797483895   -1.87632910363112    4.96903716203878
H        -4.47287162431468   -2.23626180769934    6.54728298654661
C        -3.24107663874209    0.13771721726081    7.00974740571511
H        -3.35498787171923   -0.48215225931959    7.89784418650165
H        -3.24852799456320    1.17989601512579    7.31644273810024
H        -2.27166044597738   -0.08011012455926    6.56554297922452
C        -4.70242961697667    2.80657473078123    5.06453979989386
H        -3.82798454344786    3.19325929425347    5.60036577242917
C        -4.97695440811754    3.76175704376692    3.90398120362434
H        -5.90085058380271    3.49386058043735    3.39777344991425
H        -4.16602878278852    3.73763567350184    3.18107388470094
H        -5.08344196877414    4.78319670802649    4.26742422690978
C        -5.87931665594489    2.83823251914179    6.03835133721642
H        -6.10462593891990    3.86589806210256    6.32118254153522
H        -5.65209981359377    2.28336533677172    6.94390183580851
H        -6.77099094919421    2.41005516463435    5.58782872089751
C        -5.23087028145228    0.32465954909500    3.00070958276271
H        -4.93064572726810   -0.72248826637145    2.88189769916099
C        -6.73554202308361    0.33202709794884    3.26809442823043
H        -7.10614920309081    1.35057462049827    3.34827323594993
H        -6.96981954747498   -0.19003376203082    4.19252392188714
H        -7.27064343339100   -0.15585467058149    2.45438162868422
C        -4.92942063479978    1.02694955327892    1.67613702308688
H        -5.40574725440485    0.49715780371955    0.85173619263176
H        -3.85920133296673    1.06281468042992    1.48727628041818
H        -5.30681725203065    2.04491830590728    1.68143652586030

