51
CSD_code = ZEJNUZ | q = 0 | S = 0 | Stoichiometry = C19H24Cl2N4ORu | MND = 6
Ru        2.63199204017468    1.61021503972393    3.78869801651497
Cl        3.55508425328540    1.72936990002870    5.99964468684661
Cl        1.59186217901497    1.16708994439835    1.67178672450112
C         4.48710354871533    5.07629793839747    2.04104086725607
H         5.48230294402876    4.90369793003409    2.42752219404308
O         1.31578292538225   -0.23541642021865    4.60232476252584
N        -0.15777800935866    2.27178230259557    4.62855207699219
N         4.00816133171755   -1.04348751526845    3.81097974696299
C         3.94356876167915    0.15361723392750    3.18582799985636
C         2.19991687839731    4.80164664040414    5.42719467193684
H         3.12698933668267    4.22762685579775    5.43411745607163
H         2.08866808208734    5.31408620286610    6.38191841666414
H         2.24344821430141    5.53799727327964    4.62122330138996
C        -0.94418458670519    3.11356239882555    5.36975472943065
H        -1.97895249276113    2.91478780272537    5.56100096711045
N         1.09069293399974    3.90691982795836    5.23579816622260
C         1.10541064220944    2.75172843783323    4.53844082914974
C         5.21139112394883   -1.25328907956762    2.00214337389539
H         5.83563429054681   -1.57232968430487    1.19274550653406
C        -0.15713821731733    4.14650486207570    5.74471397794857
H        -0.38114445251677    5.01622066761635    6.32773396099558
N         4.68659850637622    0.00925967249333    2.06997887705711
C         4.93879542029974    1.02320164028640    1.08164437058581
H         5.11346276273879    0.55068035018878    0.11596995813661
H         5.81381177082359    1.61705241078032    1.35548367703988
H         4.07279311150037    1.68241549558138    1.00795024129418
C         4.77954513713242   -1.92057200658444    3.09568474904901
H         4.95848642981627   -2.92553030217124    3.41953480963007
C         2.17527911513763    4.43062671697930    1.86230073509777
H         1.37360524782110    3.74927557498119    2.10427361395154
C         3.73834514861591    3.05175594133205    3.21612138210680
H         4.78641672536687    3.04809033205457    3.56209285743282
C         3.45874144573816    4.17539846534731    2.38153289115708
C         1.94285547490320    5.51806524409747    1.04837777016766
H         0.95124580196258    5.69250624694315    0.65593132753712
C         1.86641484131664   -1.48511905351047    4.94827164409960
H         1.59722173407707   -2.23120196697389    4.18071202555845
H         1.46437580030347   -1.81397407290904    5.91863685698429
C        -0.08611148984838   -0.18884661922445    4.73490947679784
H        -0.35337960540759   -0.17308183161265    5.80554652160195
H        -0.53520930095862   -1.07962571369316    4.27020809330859
C        -0.62233457697491    1.05276771636598    4.02045097888426
H        -0.27255931618424    1.02210824987312    2.97907532482218
H        -1.71395443185232    1.03950508122825    4.04456082516200
C         2.97320683254767    6.39092775308748    0.72702965447182
H         2.78584103483526    7.24288059587665    0.08986272299006
C         3.38435433853983   -1.35199285932938    5.07112398223111
H         3.59830897597571   -0.53688723000895    5.77648274318751
H         3.79976792757686   -2.28792048974791    5.45013423678996
C         4.24662404121723    6.16290503335678    1.22820256551800
H         5.05233936907897    6.83930106578200    0.97975265448982

