102
CSD_code = ZEJPEL | q = 0 | S = 0 | Stoichiometry = C51H40N2O6P2Pd | MND = 4
Pd       12.77275118564885    5.23038933251779   13.24140225133687
P        11.25387068403411    3.52041658993402   12.71913104623861
P        13.61884648011717    4.60227006644137   15.32067530391417
N        11.97836540555811   10.21888820450532   17.34980144514837
N        12.89834196165503    1.33054922420767    6.21671512919356
O        12.80695961274114   10.47051579990842   18.20768270892805
O        10.79278206376397   10.48709421491435   17.44955793886652
O        14.46512840349791    5.18136903293690   11.11829822345138
O        12.45730325795946    5.35787669490361   10.00580101823008
O        11.86658572039004    0.96202154165333    5.68953745967502
O        13.99113359484907    0.84821041818512    5.99241998356084
C         9.67586400655785    3.70484226821979   11.82418199261170
C         8.74777661326449    2.67067204264818   11.74026528569195
C         7.57800502255284    2.85354838780215   11.02604345085767
C         7.32175709955923    4.06475832210246   10.40171821202795
C         8.23176480857482    5.10388227241882   10.50251625316689
C         9.40366881392362    4.92429352560149   11.21562961440790
C        12.22932972659127    2.37545380322025   11.69059471182982
C        13.59627107778264    2.34472702329915   11.96532227201093
C        14.43136023921895    1.50740888574846   11.25083458201885
C        13.90864670799824    0.69564823352451   10.25647694807393
C        12.55255607135287    0.72885627193316    9.97580083628423
C        11.71174562055707    1.57019992324305   10.68274729309252
C        10.71642649936481    2.45622090081889   14.09805596746808
C         9.88977386234110    3.04963074315657   15.04892835413964
C         9.42202434514059    2.31659035533957   16.12147874081849
C         9.78043465954683    0.98378949358720   16.25386885698263
C        10.61556119791829    0.39475980905348   15.31982579985072
C        11.08867731679939    1.12651177558425   14.24447856109425
C        13.87661055847248    2.91034519873328   15.94948502380598
C        12.96126944167720    2.31971907105505   16.81414216705857
C        13.14389339384497    1.01426041418156   17.23170785380292
C        14.22482387428995    0.27947174489414   16.77510035488510
C        15.12836204744841    0.85582710494995   15.89695762709363
C        14.95703900822002    2.16352072414509   15.48528424831914
C        15.30690376053325    5.29086722304330   15.44150820725788
C        16.07534706606040    5.17230144018863   14.28251698587241
C        17.36806163116316    5.66018622503056   14.24823743676099
C        17.89818990109302    6.28841740154684   15.36439235062547
C        17.12918420589557    6.43224748454868   16.50718523698203
C        15.83731964765605    5.93513075291993   16.55137426557038
C        12.62859575956513    5.39195336802003   16.62053060151981
C        12.91010782591579    5.31916062505538   17.98236875938765
C        12.11512086975406    6.00027747181749   18.88597799306639
C        11.02499121791270    6.73447490517472   18.44483281587583
C        10.71389361602507    6.77264962476572   17.09585738695191
C        11.51541026832233    6.10617028941828   16.18719472655558
C        13.64318190086855    7.16103316836976   12.90645478737502
C        12.84390880128929    6.77596835409700   11.80987613966023
C        13.22228696807502    8.06643707257388   13.95407487258902
C        14.14762343764321    8.45805626498097   14.93937922637050
C        13.75054950326191    9.17178256100699   16.04226389182898
C        12.41456536318307    9.55099718937633   16.17260575392339
C        11.49552291107000    9.24982689156706   15.16748087680598
C        11.89237277563323    8.51364962367321   14.07863142263447
C        13.36522870602558    5.70480575688363   11.00038046634680
C        12.66023313031357    4.37479853084325    9.09312330020506
C        13.90112160290519    3.83498398057828    8.75451393006623
C        13.97356624421202    2.84166646107364    7.80214111967072
C        12.81787081356656    2.38990038998399    7.17568627866187
C        11.57820147911010    2.94365110902847    7.48804232798564
C        11.50245652701298    3.92948692651382    8.44089002312948
H         8.94014470199441    1.73256400642839   12.24258382965754
H         6.86075096668759    2.04896407588475   10.95649233344875
H         6.40710976381135    4.20024247591978    9.84407465301832
H         8.02593390492357    6.05224682899656   10.02770123437264
H        10.12355786046492    5.72838201476869   11.30819905007994
H        13.99528756465822    2.99055978770313   12.75055166775142
H        15.48977418185006    1.49009650369645   11.46324898301808
H        14.55756631240496    0.04113607859054    9.69422661034240
H        12.14546240562867    0.09584597283041    9.20091223600868
H        10.65786016086284    1.60193996153815   10.44714300770807
H         9.61529141736071    4.09105672114211   14.93270911546488
H         8.77853647128008    2.78125608352161   16.85424280370743
H         9.41030205770164    0.40641762959138   17.08811098002791
H        10.90006629920542   -0.64175359705825   15.42598835691635
H        11.74318124392734    0.66357235151673   13.51954966790409
H        12.10595011581573    2.88215989619346   17.15990026768227
H        12.43628408542322    0.56963736413990   17.91565487006899
H        14.36337384739435   -0.74039452064825   17.10162239730803
H        15.97064736720882    0.28469839118512   15.53505684787481
H        15.67064564481323    2.61347004702618   14.80858569681962
H        15.64017333815809    4.72175600345147   13.39108917689602
H        17.95587268741753    5.56536777865324   13.34708262052566
H        18.90433517002651    6.67969360415151   15.33780210458500
H        17.53449189840027    6.94021410175335   17.36993261155265
H        15.24086162140798    6.07551817201955   17.43938598792428
H        13.73597007124637    4.71562774115035   18.33309541834089
H        12.34355698513345    5.95681652008047   19.94067640710222
H        10.41316247995133    7.27110867516287   19.15392477916510
H         9.85097600326802    7.32701780140636   16.75856947239404
H        11.28326538338361    6.12415918974705   15.11785028012581
H        14.71700071927054    6.98505004589783   12.82319192864216
H        11.92976768143010    7.26991899656750   11.50198226435039
H        15.18047501307429    8.15913791854667   14.83621140556857
H        14.44894507864265    9.44023217480516   16.81981904480701
H        10.47603969310980    9.58756459456527   15.27614728197074
H        11.16078195625273    8.25489823228680   13.32456493086716
H        14.79268513380991    4.18204860562827    9.24860699583277
H        14.92258591000355    2.40541395993827    7.53092475798237
H        10.69597792784330    2.58202108424651    6.98268786942133
H        10.55612255897201    4.37041621994929    8.71221135263275

