83
CSD_code = ZEJPUB | q = 0 | S = 0 | Stoichiometry = C38H37NO4P2Pd | MND = 4
Pd       -0.19552158496584   -2.13964111001059   17.16249330392856
P         0.18228252197746    0.07915311382549   17.73516775797420
P        -0.33209049269731   -1.46786014878398   14.97348629780025
O         1.26975774146825   -2.88158179834359   20.05384438562250
O         1.76534420627191   -3.80737878464870   18.04216946470699
O        -6.33595937440817   -4.23339492468175   14.20176391211770
O        -6.65184819694578   -2.46113757862391   15.38138864346528
C         2.80826354826313   -1.33169693783504   21.02579460631537
H         2.38825213039792   -0.52156400651171   20.43316972895397
H         3.85935712514938   -1.12449235116101   21.20561935569389
H         2.28524156158484   -1.37754736338215   21.97784408874403
C         3.23929575812097   -3.82430808948987   21.08216090261538
H         2.72074950562582   -3.91869085848758   22.03368693741158
H         4.29778319002228   -3.66290537231877   21.26629056921341
H         3.11576098433212   -4.74767039880783   20.52124680728642
C         2.66446757860542   -2.65593180678818   20.28735510612344
H         3.16261696935591   -2.59832569772490   19.31017609450589
C         0.92932809900858   -3.43517453396230   18.86349079447343
C        -0.50338397235541   -3.54222383809001   18.67668599984979
H        -1.16782725366987   -3.26263405852195   19.48846933815829
C        -0.91866362886327   -4.11257398246271   17.45519404432124
H        -0.25928078145070   -4.84603251586825   16.98893327594925
C        -2.26629964462078   -4.00821551571367   16.93072589058585
C        -3.11137513179444   -2.94017356883493   17.31082249950793
H        -2.77425987154944   -2.21940692286079   18.05994622546722
C        -4.33018898652580   -2.76207837123827   16.70823235996175
H        -4.97269407630396   -1.93513223149423   16.97031047352100
C        -4.75304837386412   -3.65223399597388   15.71720305333569
C        -3.94755492780106   -4.72846944722185   15.34645696076225
H        -4.29980861768667   -5.40386406131848   14.58199842682120
C        -2.72487210855635   -4.90107987588679   15.94699490173364
H        -2.08890610797234   -5.72174876612897   15.64790247622393
C         1.79397957509768   -3.08456855524895   14.36999357261530
H         1.66484062456107   -3.41208139679665   15.40241490564249
C         2.79789635174890   -3.61630815575838   13.58024079984366
H         3.46904679491106   -4.35804592965769   13.98699216180774
C         2.93606969013974   -3.19667530127511   12.26741806883933
H         3.71699388353377   -3.61180003951804   11.64732381553686
C         2.07210622559672   -2.24705524603985   11.74227880841602
H         2.18202999559758   -1.92719470863002   10.71628018244762
C         1.06885871510178   -1.70963155062209   12.52709064750311
H         0.38731118246488   -0.97514601990400   12.12081446384583
C         0.92945395953646   -2.12794209624737   13.84643658062687
C        -1.88605613413769   -1.61298056082951   14.05169063133670
C        -2.08377706361471   -2.68609409092346   13.18623107928039
H        -1.27310376721167   -3.37841117518928   13.00246634273508
C        -3.30536054800007   -2.85932776448739   12.56358608310066
H        -3.45290067235166   -3.68837450943136   11.88772221260025
C        -4.34583944572053   -1.97845107188274   12.81245983379715
H        -5.30069083504284   -2.12091617990795   12.32977213936533
C        -4.16614824808041   -0.92871633787482   13.69899362395760
H        -4.98542211357185   -0.25901039401472   13.91417992243649
C        -2.94568562512776   -0.75121962881497   14.32317311485544
H        -2.81233141101596    0.05679130363982   15.02887765491101
C         0.06353470970081    0.35594422773383   14.94375699570732
H         1.14948044473783    0.41532771093171   14.80464113136413
H        -0.42169058230595    0.83264104975981   14.08675377988781
C        -0.31062054666177    1.07169522348123   16.24196433466352
H        -1.39364077118033    1.21656415267626   16.30963395473379
H         0.17535971634952    2.05225484432071   16.27227151022438
C        -0.36167189644505    1.09448061481206   19.14578075541806
C        -0.69179581866707    2.44405365705062   19.09672098527027
H        -0.65503348704914    2.98603326857804   18.16330148756759
C        -1.07499278588916    3.10087201466216   20.25336259284837
H        -1.33116219323165    4.14969351944751   20.21234140053652
C        -1.13023180315858    2.42246103444412   21.45975102163242
H        -1.42864184369972    2.94358434641820   22.35723587623790
C        -0.81139781932960    1.07480626037057   21.51243567056027
H        -0.86245586824884    0.54200057784973   22.45042068553405
C        -0.43697869035877    0.41261642178397   20.35902234347568
H        -0.19926325909978   -0.64541228227137   20.38021108796724
C         1.98660214675074    0.33058432228315   17.71676103118335
C         2.61072517540429    1.47250331169355   18.20651640125798
H         2.02049481393105    2.26626349628586   18.64369943437350
C         3.98870994067692    1.57955025855470   18.14674873488585
H         4.47493951099360    2.46420189961099   18.53157087090442
C         4.74574921066070    0.55567715598112   17.59943790726990
H         5.82121772141905    0.64599281817522   17.55830050578231
C         4.12687142904555   -0.58508757528243   17.11345837998527
H         4.71611838476924   -1.38734730433791   16.69469963251349
C         2.75042136710639   -0.70095007710281   17.17586412354742
H         2.25210164345387   -1.60609228192956   16.81924004568463
N        -5.99213777215397   -3.43793745722939   15.06173599034684

