94
CSD_code = ZEJPOV | q = 0 | S = 0 | Stoichiometry = C44H41NO5P2Pd | MND = 4
Pd       -0.80712136963278    2.48284390287646    3.94496840858300
P        -2.23697537111849    0.73550154213918    4.44374438212344
P        -2.27650919754941    4.11670620412273    3.15273932414252
O         0.44638929871243    1.35532351808871   10.82312841835333
O         0.43483103837155   -0.72642970710262   10.27284417487182
O         0.98521137162509    2.29073049505402    1.82887370488382
O         1.40037389405265    4.51844568112289    2.14036467253126
O         1.68177640047159    6.10942496897547   -3.14525539364152
N         0.55054783809210    0.45822951352891   10.00063000904267
C         0.79629372275378    0.81467676666259    8.65055366138515
C         0.93543172559838    2.15893965123866    8.30085103556340
H         0.91144158110441    2.90454553067109    9.08128791749601
C         1.07788569773096    2.51184041219431    6.98223393101174
H         1.15647910258177    3.55819895626042    6.72200529453021
C         1.09435031402531    1.53281391802708    5.96876044385493
C         1.03005180277745    0.17937065930385    6.35663984218903
H         1.07408301533748   -0.58452740884185    5.59300737657380
C         0.86550627700952   -0.17711283818303    7.66993181094611
H         0.77858193962488   -1.21101198018190    7.96655313970907
C         1.11901319605760    1.85728760915714    4.56062190909890
H         1.36907375698289    1.03506251074594    3.88499837657588
C         1.17697488194667    3.16214989532819    4.02118343062723
H         1.42101174991093    4.05691639030546    4.58414627981547
C         1.16548460153805    3.24398760384876    2.57506612967237
C         1.45632619220262    4.85810525202444    0.80271554116035
C         1.16567020607306    6.18127503194912    0.49957759999902
H         0.88406504218899    6.85413050973146    1.29471727655100
C         1.23897569773255    6.64184924603659   -0.80182221741722
H         1.00912953693560    7.67676594911949   -0.99950371188355
C         1.59900572996623    5.77354196497228   -1.82537842061113
C         1.90300056129489    4.44975369932170   -1.51238715188159
H         2.19354805179152    3.78827643771441   -2.31296366655643
C         1.84090480248573    3.99165666058307   -0.21387049891702
H         2.07790498131253    2.96501644479241    0.00846080080575
C         1.38192438987483    7.43086798027043   -3.51973986724503
H         0.35107522506760    7.69791744927149   -3.26390390467009
H         1.50410751431706    7.46622479069049   -4.60126562554966
H         2.06778176550707    8.14738794725469   -3.05605268967408
C        -1.39968461418824   -0.80754887564914    3.95406674884215
C        -0.67738330805270   -0.70424043003055    2.76505890227641
H        -0.65174553532918    0.25075492387446    2.23924305647835
C         0.03474477796056   -1.78480963457593    2.28229974139305
H         0.59316693978200   -1.69568947346052    1.36238540239484
C         0.04908464907483   -2.97348559087568    2.99618700113177
H         0.61392813493155   -3.81774968609629    2.62930934022429
C        -0.64154124497538   -3.07137010276032    4.19254799897075
H        -0.60990706554448   -3.98999212816665    4.76019553406856
C        -1.36646837106644   -1.99415752310977    4.67487693535539
H        -1.87589865243694   -2.07365793885025    5.62290100895370
C        -2.59820676224477    0.63725857269629    6.22271356024700
C        -3.34379851988985   -0.36294215170130    6.83775020883632
H        -3.78506145171269   -1.15582281980391    6.25021050897170
C        -3.53431376299867   -0.33585764026042    8.20778012353011
H        -4.09828657535048   -1.12278627447012    8.68684144461489
C        -3.00884810743851    0.69722488759870    8.96725246405470
H        -3.15257976962060    0.70743168687322   10.03698626169522
C        -2.30741307298096    1.72225445783112    8.35380438668080
H        -1.91981793075140    2.53900242112330    8.94412508713634
C        -2.10189395012214    1.68996091067159    6.98727616840761
H        -1.55392398046851    2.49374703120666    6.48657771498956
C        -3.91060793471709    0.47929442679203    3.68424963189326
H        -3.77313445444647    0.59095390887579    2.60355487836931
H        -4.22327049510801   -0.55328882017496    3.86797012188163
C        -4.97529131383437    1.44574209030682    4.20990933751486
H        -5.84402779715191    1.40891115634351    3.54635940437810
H        -5.29751134875799    1.10500157550487    5.19694475862993
C        -4.50458855673547    2.89493489333147    4.35632976753714
H        -3.67886783986775    2.91128783133209    5.08027569421589
H        -5.32223614330456    3.47403862811228    4.79070348218794
C        -4.03672615806362    3.53908071063501    3.04656360966161
H        -4.67448950925050    4.37213678731202    2.74084414669912
H        -4.05042000960286    2.80778858421765    2.23380541083988
C        -1.96890834882908    4.35875478101593    1.37765097440698
C        -1.60297204714228    3.20418812639250    0.68894804282280
H        -1.49004317185480    2.27364743573445    1.24704774427522
C        -1.36611544895852    3.25175229348996   -0.67038087296885
H        -1.06674412724106    2.36008494617967   -1.19995633345150
C        -1.50318179402890    4.45191401781294   -1.35018449258896
H        -1.31448283918220    4.49318002248667   -2.41246937332241
C        -1.87180488816889    5.59925247088317   -0.66843865400831
H        -1.97977640506225    6.53293701932973   -1.20121712592533
C        -2.10320862320321    5.55994568711119    0.69535422894684
H        -2.38180676509460    6.45793126358815    1.22910634517326
C        -2.34512077343832    5.80939023424427    3.80954882492925
C        -1.13918546116641    6.51060987906006    3.77993844862655
H        -0.26379155499230    6.02699946482264    3.36287606593167
C        -1.06651827026992    7.79725110877449    4.27465841126446
H        -0.13269098311341    8.33966986023120    4.24022260614508
C        -2.19321314019794    8.38917360138306    4.82646118728928
H        -2.13856976482368    9.39388056506371    5.21866118314493
C        -3.38440398999575    7.68644927695389    4.88610253225895
H        -4.25787530334295    8.14269126925741    5.32907902042759
C        -3.46460194851058    6.39864124155236    4.38284741135166
H        -4.39667158190459    5.85726588074993    4.44488223811366

