75
CSD_code = ZEJQOX | q = 0 | S = 0 | Stoichiometry = C32H36BrN3OPdS | MND = 4
Pd        9.38599354539500    7.28255772851959   16.70598203400223
Br       10.51967129641368    5.57174931263317   15.38542513790823
O        12.31207699879199    9.64524880240823   18.53291028662691
C        11.34605269434621    9.29290499221390   17.66856315521101
N        11.16790333094665    8.04097983808228   17.49398148576673
C        12.11149889266077    7.30347319746636   18.33505331589905
C        12.78497430571971    8.44722523055127   19.13715963147344
H        12.49084963632870    8.45395036886666   20.19263883962293
H        13.87420243273286    8.42760840055086   19.06724541972806
C        13.15248608568250    6.56941829365143   17.48722009403989
H        13.64526382643713    7.26368974585837   16.80849254305122
H        12.68996968414764    5.78455905782546   16.89659130821429
H        13.89829899621823    6.12288646138879   18.14106780749720
C        11.32120877460726    6.32263624264144   19.20211962571543
H        10.75614160167990    5.64333180167030   18.55073794046656
H        10.62751123376057    6.86122481769136   19.85075290250776
H        11.99644313836779    5.73224244457177   19.81693804334002
S         8.25752138762703    9.05832522144324   17.78634362538588
C         9.17544184378061   10.35975835902706   17.09847978744802
C        10.58193474222825   10.37773456870752   17.06437845733664
C        11.25479386422636   11.48688570742843   16.56189505029055
H        12.33483901418739   11.47678433180216   16.55091067289600
C        10.55509026536461   12.57516481507717   16.08187000115608
H        11.08543426836262   13.42338620055379   15.67657125711583
C         9.16762852794779   12.58088523858890   16.15259370096516
H         8.61315749376408   13.44215183759771   15.80999365742318
C         8.49035034303161   11.49726125933797   16.66488222767937
H         7.41386419079253   11.50073905570415   16.73844011501196
N         7.19500917257882    5.36427281952852   16.24397446073701
C         7.67376534024945    6.61004864900800   16.06000095258211
N         6.76469456480429    7.25704631216935   15.30518036914728
C         5.72300197466417    6.41002989073119   15.00990672341844
H         4.90291577225610    6.71204590484701   14.39250498947879
C         5.99380133035288    5.22448590167733   15.59663316640746
H         5.43607022475025    4.31180778721703   15.62066922214564
C         7.85725953220912    4.32005014239635   16.94839919761752
C         8.11021837973885    4.46217046696540   18.31477438241293
C         8.78394322707120    3.44167208295487   18.97285020246263
H         8.99213547240531    3.55053380883715   20.02780340406476
C         9.19559818371196    2.29727192294871   18.30926442247215
C         8.91033713831722    2.17493630690820   16.95665225361261
H         9.23049805505100    1.29006687026924   16.42715674873828
C         8.24782522052910    3.16981856613754   16.25659187736514
C         7.65537125921896    5.67369367764668   19.07333065879191
H         6.62714785344604    5.93239033188739   18.81999721798677
H         8.28684450300778    6.54408747487922   18.83083282151376
H         7.71784206946278    5.49588356797207   20.14390689887769
C         9.92195972753828    1.20316786868875   19.02912045430234
H         9.26733463053922    0.34233093014555   19.16088916219660
H        10.25495432586231    1.53361063312506   20.00909334922328
H        10.78601917062387    0.87933292353907   18.45378714476177
C         7.99821479975321    3.01022253025632   14.78851859616050
H         6.97999937968946    2.67120778839880   14.59767761661877
H         8.68442113705344    2.27619960711930   14.37712058915740
H         8.15794165962143    3.94967273256123   14.26584176114274
C         6.76241135501656    8.62630800358203   14.91570330266999
C         5.69432313607747    9.42780735991434   15.33388632699392
C         5.61152171509932   10.72636768060332   14.85805747972872
H         4.78492190244419   11.34690729262980   15.17463363370058
C         6.57089496418807   11.25303319994497   14.00410985307261
C         7.65325614966141   10.46001039124239   13.66128948898703
H         8.43219267345104   10.86777142958691   13.03328862174620
C         7.77149826173499    9.14891010557661   14.10321997831448
C         4.68759103943540    8.93184266650005   16.32906009362842
H         3.92181871970598    8.31446460997527   15.86068069119905
H         4.19252026899415    9.77496090194132   16.80437444129127
H         5.18183929867160    8.34459921798123   17.10160426242917
C         6.44103051419839   12.64853224230466   13.47689124760126
H         5.97565315235715   13.29977272252409   14.21337242336994
H         5.81474603674934   12.65129489313425   12.58410483137052
H         7.41384317197946   13.05278872344356   13.20858352164118
C         8.98357811140484    8.35334749104654   13.72887985170766
H         9.46335377725834    8.77872074308587   12.85039955431553
H         8.73956392244160    7.30964209861375   13.52203141435565
H         9.72071530903319    8.38899739570583   14.55851221468856

