80
CSD_code = ZEJQUC | q = 0 | S = 0 | Stoichiometry = C40H36Cl2OZr | MND = 8
Zr        1.53786845844763   13.60239041905678    9.81386704539932
Cl        2.48040800613279   11.51871201905607    9.42303634818383
Cl       -0.44168454054941   12.92838897928553    8.80910553337897
O         1.28765072342397   13.67861816633194   11.63778767951318
C         1.47448806489964   15.80308435471541    8.85005872261444
C         2.49277574744672   15.80670853583712    9.85277439867956
C         3.52032266951946   14.91057965389487    9.42662887093971
C         3.14415585265854   14.37308422510219    8.15963769580571
C         1.88341222592342   14.92026226521954    7.80608114555488
C         0.22129661309019   16.63454436659256    8.81431632044855
C         2.54462666836715   16.69614347648686   11.06690057312010
C         4.82640376226753   14.62109281188530   10.11328454929358
C         3.99615449970121   13.48023907687539    7.30132641516494
C         1.15331465453897   14.68721450607934    6.51204560389012
C         1.29136207432162   14.20042173885805   12.85800957373506
C         0.22991971234216   15.03300341439640   13.26537935512862
C         0.22293972717272   15.54815511137360   14.56517962468499
C         1.27709505032244   15.25930919144280   15.42223297463328
C         2.34993536052096   14.47367200664756   15.02022293560388
C         2.37396655342894   13.94843335791257   13.72467531616888
C        -0.81654424546665   15.37332260832460   12.28432074384460
C        -1.23044766593675   16.69742966732797   12.12993358984557
C        -2.24093002886046   17.02045405853417   11.24498899897557
C        -2.84680672544531   16.02999042296933   10.48835912315494
C        -2.43081309005514   14.71548861405364   10.61609200226459
C        -1.41649393804411   14.38525408294841   11.50197326817570
C        -0.90985167464837   16.34126128725723   15.07523042544489
C        -2.21804886698492   15.88588951244162   14.93374610443629
C        -3.27392655339928   16.62379418887263   15.43375951775653
C        -3.04051174337107   17.82608246567757   16.08091837252255
C        -1.74252536786901   18.28248118741428   16.23443663739333
C        -0.68377373560735   17.54295480868676   15.73998824058992
C         3.40785268390358   14.16432557890206   15.99871937720884
C         3.99697704462641   15.18329122935935   16.74159305185225
C         4.97847075608120   14.89697438476450   17.67269990097550
C         5.37680352089711   13.58771580075974   17.88191980242799
C         4.78553607030148   12.56566991038429   17.15758608075944
C         3.80875857414631   12.84982295459256   16.22239594181016
C         3.52220890183551   13.18021415506345   13.21079124932543
C         4.82366713078906   13.63863963044413   13.41770985330174
C         5.90605338240844   12.91450744292575   12.95664992968844
C         5.70793367193787   11.72871854135888   12.26729352599742
C         4.42056576215316   11.27164205957202   12.04072375231497
C         3.33145542493386   11.99210247970091   12.50467281093400
H         1.24127602353496   15.61944769841773   16.43979206726950
H         1.57131438002665   15.31313425308185    5.71967191797374
H         0.09585195365207   14.92569281891287    6.61642559500800
H         1.23850893336640   13.64480426698310    6.19926746820509
H        -0.76266548689936   17.47388358630121   12.71845208498520
H        -2.55893960880303   18.04825140884352   11.14733201100678
H        -3.64299363329522   16.28255889296596    9.80416518499073
H        -2.90032624345184   13.93857204576300   10.03199692458463
H        -1.14591365327332   13.34187439818362   11.64242085031590
H        -2.40253912005894   14.94441914563723   14.43810975371038
H        -4.28406048060803   16.25897613226846   15.31920076751284
H        -3.86725358151250   18.40363362271117   16.46718473660327
H        -1.55427471741803   19.21803949545480   16.74102855039737
H         0.32834932198395   17.90555785414033   15.85155661923937
H         3.69433992069967   16.20705416819262   16.57211857840722
H         5.43398708645416   15.69798977150619   18.23683806020595
H         6.14322018794554   13.36418464189475   18.60919368325117
H         5.08694567871211   11.54178268707790   17.32303417881955
H         3.34339020245378   12.05013836175278   15.66570126557182
H         4.98395609792331   14.56633383545578   13.94810832300939
H         6.90785565274696   13.27748289477291   13.13418335092373
H         6.55489603587273   11.16176929430163   11.91044724024038
H         4.25827755286724   10.34886423213398   11.50487004932994
H         2.32994291008586   11.59463935071238   12.37072761051748
H         0.11535220533315   17.22555685083732    9.72147200329541
H        -0.66349714869029   15.99896853821126    8.71252281551610
H         0.24567130032342   17.31966540097602    7.96451888332930
H         3.05568121888333   17.63267361745455   10.82884347205829
H         3.08458870271036   16.21679814376823   11.88441152245397
H         1.54237567459496   16.93914576024250   11.41924051089364
H         4.87191394018924   15.09782595661727   11.09021287064647
H         5.66102259582485   14.99312754966871    9.51534915351848
H         4.96146205593338   13.54393090315016   10.24870377196802
H         4.62631023783796   14.07964765951614    6.63930142108203
H         3.37797776067368   12.82973611286961    6.68201303081112
H         4.64307487106746   12.85385389981668    7.91503068939105

