109
CSD_code = ZEJTOZ | q = 0 | S = 0 | Stoichiometry = C48H50Cl2N6O2Pt | MND = 4
Pt        4.99820047077315    8.43113413370812   -0.00027672005698
Cl        6.59099930160527    6.81036110655232   -0.47913015710427
O         4.87743415628690    8.79944466120511    4.12759025342070
N         5.34396388456650    8.27818886321176    2.00875033318886
N         6.18950906273109    9.29876677944870    3.86147500016757
N         3.19147935056110    7.87877970480268    2.92954817989336
C         4.44296111051521    8.31587682173872    2.94845959420707
C         6.62860234338474    8.58579168024488    2.63096266525934
C         2.27483325498865    8.30629230652855    3.97283053264320
H         2.71868351775739    8.11069046676803    4.95390620032384
H         1.37102933904644    7.70484879294191    3.87183735731948
C         1.93847546100734    9.78684085603384    3.82887885640296
H         1.12180711686456   10.05220732664011    4.49472807186951
H         1.65362017281750   10.00349092868113    2.80227076206662
H         2.80265696665906   10.39718614501137    4.07452810902756
C         2.72189221702054    6.96002170041620    1.91751257377959
H         3.39928150046382    7.01267411389938    1.05265241786301
H         1.73217494102445    7.28007547585368    1.58794275625736
C         2.67930007942737    5.53560133934036    2.46381706296001
H         2.35523710411772    4.85676891195503    1.68176490379680
H         1.98953982386103    5.45871032386680    3.30166462822361
H         3.66611960378153    5.22947638384971    2.80231510230147
C         6.97667180525108    9.45496524949860    4.99959912328002
C         8.10634684500683   10.27286772680435    4.92161820563319
H         8.37388185075406   10.72201872936898    3.97770693200669
C         8.87260202282639   10.49777422264248    6.04689151598098
H         9.74835664485713   11.12596073217558    5.97460716904676
C         8.51905169707046    9.93831527806194    7.26521872969844
H         9.11946400040437   10.12423054448716    8.14269565463128
C         7.38664279441989    9.14866688150314    7.34884463976023
H         7.09921168120536    8.71169545377794    8.29388474857239
C         6.61813838509063    8.90327138969404    6.22599387399678
H         5.73610991928355    8.28542840235482    6.29439290410641
C         7.36461812067280    7.30027354000556    3.00222665112219
C         6.78474426075410    6.05709900263529    2.78709486632038
H         5.84265672901540    5.98537861527945    2.26608002122968
C         7.42237609657287    4.90008166523908    3.19867889114166
H         6.96013953862642    3.94239041064564    3.01002101633844
C         8.64323057767930    4.96835301829046    3.84416099811559
H         9.13826343475660    4.06589840433893    4.17123933392913
C         9.23131659971542    6.20297741158066    4.05855080242140
H        10.18936222804206    6.27043300224492    4.55277319767050
C         8.60225393909393    7.36001036085302    3.63730682138985
H         9.08331252034105    8.31120720143735    3.80128729662807
C         7.44111415779044    9.55775058025959    1.79923000383157
C         8.66107980704409    9.21334847016618    1.23249170657939
H         9.00640172107951    8.19253877220317    1.26961745036998
C         9.43631070813157   10.18494191517499    0.62156480505584
H        10.39770401984685    9.91639095163226    0.20801627551224
C         8.99550428573447   11.49573162683949    0.55667165872296
H         9.62039378754756   12.25484522693589    0.10826292015169
C         7.74737822201281   11.82702683354138    1.05964660384078
H         7.38389340828622   12.84166810436723    0.98966423823165
C         6.97052502873162   10.86362904273557    1.67626792490265
H         6.00981602353047   11.12603836835646    2.09342991878408
Cl        3.40740659259662   10.04845252362145    0.48443467107417
O         5.12061196554981    8.06054930496425   -4.12792918252671
N         4.65399267922932    8.58213170788168   -2.00931533321583
N         3.80849339158735    7.56135196100780   -3.86167226158642
N         6.80659288106979    8.98113666046509   -2.92982790878125
C         5.55508235633551    8.54418673408804   -2.94886051987166
C         3.36933643395368    8.27442269917503   -2.63125298124837
C         7.72326328234255    8.55345959031757   -3.97297990072173
H         7.27946533255519    8.74909902835833   -4.95406321137751
H         8.62711245650781    9.15481744209509   -3.87192642238406
C         8.05939668723902    7.07287569194416   -3.82891059868319
H         8.87605483292930    6.80739681628041   -4.49473004603776
H         8.34413899305109    6.85624234164855   -2.80227021540990
H         7.19514216053855    6.46263480778106   -4.07454681083799
C         7.27620773301071    9.89987791300885   -1.91777069279042
H         6.59876310862387    9.84740648408765   -1.05294826703514
H         8.26587464801814    9.57972066988778   -1.58812190988955
C         7.31898522205316   11.32428802914035   -2.46404753395672
H         7.64309770973364   12.00309644830192   -1.68199412611779
H         8.00876452671102   11.40107272163397   -3.30188474636057
H         6.33219176652346   11.63048612160216   -2.80253740609532
C         3.02127474828965    7.40516881728574   -4.99971397183154
C         1.89150626802423    6.58740891576279   -4.92164834322298
H         1.62390913154887    6.13836907598509   -3.97770040581838
C         1.12518130616781    6.36258763408206   -6.04688102289714
H         0.24935395354555    5.73450879177978   -5.97455222170679
C         1.47875318161720    6.92200695856501   -7.26522002619248
H         0.87830978070282    6.73612585839134   -8.14267888352627
C         2.61123539648907    7.71154637285825   -7.34889442387469
H         2.89869227559525    8.14847674519888   -8.29394145807385
C         3.37980869995221    7.95685956618874   -6.22608821593694
H         4.26185736434164    8.57467381572576   -6.29448612759957
C         2.63355593483391    9.56005575653699   -3.00243152057044
C         3.21360323306467   10.80313660243204   -2.78728923240018
H         4.15562392684109   10.87472407044946   -2.26616609302156
C         2.57604352320346   11.96024055055161   -3.19872820508835
H         3.03836743573383   12.91787698657387   -3.01001635053238
C         1.35515498804404   11.89212157928509   -3.84415478596626
H         0.86023360609357   12.79463361126291   -4.17124033027570
C         0.76693154309511   10.65757089337372   -4.05857193321344
H        -0.19111091818611   10.59021988298985   -4.55280998331765
C         1.39586402405527    9.50046671949615   -3.63736923202529
H         0.91467516920879    8.54932941387977   -3.80130500000629
C         2.55679052447061    7.30264071366253   -1.79930269897638
C         1.33687956173603    7.64718526842581   -1.23254186630090
H         0.99173671290762    8.66804947034921   -1.26959751697092
C         0.56154359483537    6.67570310332441   -0.62155217126550
H        -0.39979190213472    6.94438652046648   -0.20794790431256
C         1.00219521091836    5.36486531065630   -0.55660118689512
H         0.37720242572708    4.60582749955328   -0.10819480219520
C         2.25028174979477    5.03342012979843   -1.05956877436594
H         2.61356683466962    4.01869254908076   -0.98972254058342
C         3.02725065607608    5.99672460929856   -1.67621348902405
H         3.98787165813949    5.73415455160246   -2.09347926096916

