87
CSD_code = ZEJVOB | q = 0 | S = 0 | Stoichiometry = C37H45NNiOP2 | MND = 4
Ni        3.63470644235556    1.10935448215235    4.38530713155696
P         2.61107416930604    2.94431341254084    4.90995398345627
P         4.97747314116606   -0.42506018818297    3.66421677035986
O         2.09681616612016   -0.44561439367351    5.81523149291600
N         5.21667692864095    2.30648097808194    4.04812398224587
C         1.76214793683719    3.72138839305812    3.44134846658083
H         0.81180933731241    3.18709742505310    3.31608803758258
C         2.64496137314374    3.43422879849410    2.22812345660494
H         2.13185472918109    3.68201949542177    1.30020499860641
H         2.91852834019531    2.37161844724975    2.20694616722528
H         3.56314013845336    4.01692080208183    2.28276944738485
C         1.49528702214146    5.21153503784876    3.60263307000191
H         1.04138442015726    5.60740540259604    2.69500862234828
H         2.42615196986387    5.74682669735067    3.78023118811162
H         0.81768965710742    5.40516971870220    4.43154293799940
C         1.48174375998041    3.21884346967381    6.35601427712519
H         1.33703657254954    4.29687070376352    6.49045358940364
C         0.12771233405443    2.55286337689822    6.13756184957265
H        -0.49873529372591    2.68885358753280    7.01789949054919
H         0.25732388575895    1.48441435227213    5.97708720628465
H        -0.39353907514479    2.97839968608274    5.28223280818508
C         2.18017790698933    2.63464764871714    7.58191570840091
H         1.57849919015142    2.78503425149821    8.47677191462518
H         3.15109479851061    3.10520175248666    7.73300418586851
H         2.32996039775227    1.56402726734220    7.44336124672966
C         4.04641140747437    4.00498777651969    5.24137182301209
C         4.02104311746442    5.19059795401058    5.95817000235118
H         3.08472292152789    5.58277301523156    6.32968505797972
C         5.19434694688336    5.87786035321133    6.21304864233367
H         5.17262127047417    6.80451802805355    6.76671940819306
C         6.40233978151059    5.34479638721285    5.78199047089923
H         7.32597450635840    5.85253009559845    6.02309979804201
C         6.44602066982484    4.17084218342100    5.06351398747490
H         7.39939183311871    3.74841803054330    4.78156331571067
C         5.26473220532638    3.48181060926026    4.73849651479478
C         6.14120366810938    1.93574664876872    3.12153150069494
C         6.99023794208052    2.80564296040907    2.41415212524156
H         6.93172895712832    3.86974579155971    2.59094356120489
C         7.86279996928643    2.32050278508050    1.46484756778167
H         8.50142814779040    3.01380262354420    0.93483527641954
C         7.93087433321423    0.96527013126393    1.16622614174746
H         8.62923562161098    0.60273765709180    0.42716970117692
C         7.07138561399954    0.08936023262498    1.80517336864158
H         7.08014064044371   -0.96406171648773    1.55776463370770
C         6.18280743894339    0.56816709309783    2.75031618252276
C         5.94148962369858   -0.90502125402653    5.12834956972052
C         7.05209598912328   -1.74018194891824    5.08041911525132
H         7.34285781827928   -2.19772544083662    4.14464678025877
C         7.77941598357773   -1.97566222355144    6.23257522351842
H         8.63972556622815   -2.62877978154610    6.20136162102480
C         7.41337487855533   -1.37067857869347    7.42537331226273
H         7.98802285957239   -1.55848919140594    8.32062803830971
C         6.31941307947996   -0.52131612557492    7.47146440524040
H         6.04224233804167   -0.04379935707113    8.39981106210774
C         5.58493795976965   -0.28847300855036    6.32413276525162
H         4.71926928065457    0.38105934652095    6.33946928270621
C         4.74583820844410   -1.93374443937925    2.68696970213666
C         4.74571471119939   -3.20045637058256    3.26269373408116
H         4.95897983980723   -3.31029502352883    4.31700663142194
C         4.46824639177803   -4.31260034163348    2.48801799947170
H         4.47774146178411   -5.29509272222618    2.93793307740928
C         4.17143459263070   -4.17016026466405    1.14202791615102
H         3.95278695387824   -5.04075790730621    0.54141293148199
C         4.14606656915421   -2.90855098289759    0.56880508391855
H         3.90560441419698   -2.79519029030704   -0.47855365250325
C         4.42516366459633   -1.79514401641632    1.33792970778351
H         4.40437701977933   -0.80516358573005    0.90032078512995
C         2.25941377209183   -0.00408884182801    4.70634796905055
C         1.40712192428765   -0.40896264154501    3.50846161372817
H         0.44124636809126    0.09670984128937    3.59360964205325
H         1.88423668470593   -0.08746552796778    2.57604983014675
C         1.22249148746038   -1.92948637475114    3.51098036380531
H         2.19276477077396   -2.39837281989838    3.69047358811277
H         0.56433517901094   -2.21031961401798    4.33454242169059
C         0.66579177308277   -2.44318135901332    2.18785270384525
H        -0.32288358700570   -2.01456183165104    2.00801475846072
H         1.32354312737959   -2.12057827348720    1.37681638181638
C         0.57629968202214   -3.96676497055283    2.17503912885515
H         1.55698211054774   -4.37977252026876    2.42245237438132
H        -0.12656447484274   -4.29712787554959    2.94304350120288
C         0.13622661546599   -4.50688178252672    0.81710328518388
H        -0.84694114205432   -4.10222281128204    0.56621619352664
H         0.83941972731093   -4.16640184856215    0.05342720167343
C         0.07620651361886   -6.02916238518214    0.80738340151447
H        -0.23272967455583   -6.39608532067262   -0.16869533024301
H        -0.63398508288614   -6.38763542187506    1.54928636391008
H         1.05250177979802   -6.44900335741212    1.04004840543186

