70
CSD_code = ZEJVIV | q = 0 | S = 0 | Stoichiometry = C26H39NNiOP2 | MND = 4
Ni        3.16574517476524    4.16061001116736    2.21137639486052
P         3.09139663720329    2.76212153812390    3.86846823245318
P         2.99405242408084    5.78810580332262    0.78692860465129
O         5.30516506016837    3.20956476158687    1.07901897001388
N         2.18870063257459    5.39875315776592    3.44672777455199
C         4.48808112610092    1.73135972187103    4.52895638704902
H         4.18973396531448    1.33122853515343    5.50456897268109
C         5.68611238094542    2.66273314895765    4.69767499012672
H         6.54336582474572    2.12035422637854    5.09286360442938
H         5.44814501907070    3.47977644103286    5.37741044319822
H         5.96185859147938    3.08578608145124    3.73145128008103
C         4.83698896695544    0.57420583562293    3.59986363771762
H         5.63943769476743   -0.02012154120654    4.03465904918706
H         5.18401594739345    0.95520806152223    2.64178353451217
H         3.98245293263267   -0.08025309929651    3.43708485409614
C         1.61162031746410    1.63001045912176    3.76024637084577
H         1.86900509631974    0.84435681538116    3.03872084622386
C         0.47767460381340    2.47430056895465    3.18041812700603
H        -0.36807027310905    1.85399653299886    2.88801562278736
H         0.83197300741516    3.02752739011252    2.30061211623534
H         0.13700586253352    3.20127521250131    3.91592434080985
C         1.21703996523168    0.99253094215584    5.08509060665355
H         0.32044485640550    0.38814133187585    4.95251886706763
H         1.00431201322876    1.75928118689209    5.82738170191990
H         2.00630797974362    0.34693545569063    5.46475332959715
C         2.71799872708028    3.90452529997342    5.22559505190460
C         2.86787753192795    3.62195368874252    6.57410019534271
H         3.16480831047363    2.63312407656803    6.89437580132899
C         2.65222230421160    4.60464434037899    7.52319881258058
H         2.76155193612460    4.38067269233440    8.57366445705918
C         2.33736547226427    5.89161189952472    7.10632668678786
H         2.22670439534037    6.67837155050919    7.83971698419314
C         2.17787164760379    6.18815064293262    5.77164020795736
H         1.98432097622122    7.20777284369161    5.47193734118970
C         2.31770934027678    5.19246926082131    4.78719073069850
C         1.44812230669430    6.41153513334413    2.91592876211057
C         0.35803454695731    7.03142561623743    3.55368464409985
H         0.04116037704165    6.68091530929769    4.52511241957944
C        -0.34183343051862    8.04260405995029    2.93494876336824
H        -1.17680323449417    8.49899125346723    3.44848225618486
C        -0.00168692366031    8.47556659391511    1.65977028324909
H        -0.54747100299342    9.28085978361380    1.19150232945064
C         1.01779444461086    7.83477520791493    0.97927754366458
H         1.25259099339017    8.13773169752877   -0.03134652526461
C         1.72699375777577    6.80923667135202    1.58331380580336
C         4.58611920091183    6.74345762563874    0.94195279622463
H         5.32330035921928    6.20338473216157    0.33535336911531
C         5.01113873553511    6.64893951317055    2.40717048024819
H         6.02337830254999    7.02599800742768    2.54499286964217
H         4.98587091198886    5.59885144835355    2.73712398168969
H         4.33662288302591    7.22587146472452    3.03885133760636
C         4.48290491361340    8.19007907642466    0.47687641921107
H         5.42767549334285    8.70321240746105    0.65078117358518
H         3.70372376758697    8.71195705338634    1.03036366485634
H         4.25600021633446    8.25233141306584   -0.58541622415720
C         2.58150272627367    5.84643580500017   -1.02423457064338
H         2.44878415177075    6.89435001207441   -1.31321954182664
C         3.70099668364938    5.23551724530446   -1.86038958312719
H         3.37233290383895    5.10682164437495   -2.89079227451779
H         3.98502320045596    4.26174198046206   -1.46592144611653
H         4.58252644367960    5.87225324598279   -1.86345806405340
C         1.26519199789139    5.10100746332560   -1.22838661866781
H         0.94985361260984    5.15137956380687   -2.26941902023666
H         0.48111908474338    5.53180108531076   -0.60716064470334
H         1.38166144866626    4.05355922668564   -0.95451870742543
C         4.10671160526006    3.07290848946805    1.13059401542191
C         3.37726231829856    1.99214844720798    0.34084448176993
H         3.82902592026298    1.89654661899414   -0.64616983213347
H         2.31160606066068    2.19794175704665    0.25126817154192
H         3.50836877427403    1.04897847202105    0.87067455664002

