81
CSD_code = ZEJWAO | q = 0 | S = 0 | Stoichiometry = C41H33NNiO3P2 | MND = 4
Ni        3.81933752453319    3.17689700572825   10.72287176022726
P         4.19200852465399    3.67768638781651   12.89836401557011
P         5.75437866971323    3.70612704011559    9.61368997925130
O         3.31608253099845    0.47035907761619    9.77538160849538
O         2.14834710363991    5.26695481234678    9.54264856568190
O         6.80198032486013    1.44090660412828   10.15120185816402
N         6.78378034215202    2.38990586013295   12.19567988412708
C         3.49626146648268    1.46022781604220   10.32487751859088
C         2.71123521823371    4.44372056462948   10.10387777253265
C         2.62678959858312    3.59808904972010   13.83812023090261
C         1.71945823391931    2.61143772806539   13.46867011401186
H         1.96177638153508    1.96415420550584   12.63287249186264
C         0.51790659703260    2.47450031619878   14.13895205893622
H        -0.18116882743888    1.70598802116196   13.84316028883026
C         0.20930704090455    3.33068035278874   15.18270055811568
H        -0.73064025304126    3.23141570830227   15.70545161262712
C         1.10364955988650    4.32347355523659   15.54970897196163
H         0.86032111418859    4.99749056607162   16.35859391194191
C         2.30871652074731    4.45945427460525   14.88443545577858
H         2.99656437991877    5.24329237065604   15.17155404677607
C         4.67836249212975    5.40779313241082   13.21280968157413
C         5.90616094977893    5.78087678492323   13.74431070039024
H         6.61592094277414    5.02949600541004   14.05885276799778
C         6.22694516482804    7.12208386834908   13.87075393074122
H         7.18738354771776    7.40384787216037   14.27772308536581
C         5.32569442601451    8.09698123051046   13.47998515855522
H         5.58061144161057    9.14156287281633   13.58335318985774
C         4.09676485560485    7.73005146361629   12.95211461536282
H         3.38989823273179    8.48668102207192   12.64422562377866
C         3.78052759091159    6.39428454102469   12.80830870470587
H         2.83224176941060    6.09994622345138   12.37673894159925
C         5.32045679939118    2.82785374312881   14.07619996183511
C         5.04324811016242    2.70751202322806   15.43430156565820
H         4.12547124316380    3.11486159337170   15.83019215258420
C         5.92838860983800    2.06826125737521   16.28235874512070
H         5.69924765395937    1.98901737406458   17.33448227699483
C         7.10415060279937    1.52795083607324   15.78759654295379
H         7.79543716951052    1.02839537176133   16.44948710865255
C         7.38996979950314    1.62680308021226   14.43819839502007
H         8.29871201400626    1.19843782075135   14.03803358425491
C         6.50532975836431    2.27657368096170   13.58514220744742
C         6.55637946137265    1.34521555127389   11.33805486637723
C         5.99302116539398    0.08777813263098   11.96498527892796
H         6.57569181110658   -0.18095472553028   12.84792270055030
H         4.97578720482093    0.31469464086815   12.30142304670345
C         5.98490464354826   -1.06448566428721   10.96965076974276
H         5.52324645409131   -1.94254850377690   11.41450489703596
H         7.00109159329996   -1.31190338649020   10.67222244153459
H         5.43435166428266   -0.78881652136609   10.07519546450046
C         7.55932030387394    3.48641881878715   11.74532469841651
C         8.62699131679507    3.93610259562428   12.51747918482123
H         8.81205118032034    3.49911546936808   13.48792818977907
C         9.45384762108513    4.93942485122561   12.05198803430341
H        10.27555518952219    5.28132560593907   12.66371007020483
C         9.23871115682733    5.48971965797856   10.79886804374562
H         9.89925742564944    6.25537647373349   10.42035545334143
C         8.16082327349042    5.07138620458757   10.04446378438281
H         7.96585014926158    5.52954649108308    9.08501728333257
C         7.29751424642433    4.08230003627315   10.50919723255402
C         6.22276416272681    2.91349121261607    8.04562509093383
C         7.52232836387835    2.85876445638475    7.56442883564923
H         8.33493715650756    3.26434606232820    8.14828587969646
C         7.77623258872264    2.25816590922843    6.34432977539605
H         8.78946281331052    2.21244241832942    5.97068647687042
C         6.74220088121188    1.71212200368520    5.60176983431388
H         6.94850475614713    1.24348655396639    4.65029949511011
C         5.44511795822858    1.75732160750887    6.08512868342731
H         4.63682965105935    1.32302060721129    5.51419071844165
C         5.18817843776502    2.35313830254084    7.30577436705399
H         4.17901573320801    2.38677266477307    7.70169325402693
C         5.41757733530511    5.40459044133813    8.98268028759599
C         5.00093717189198    5.64947993760379    7.67965370029520
H         4.94382899779305    4.83788601595263    6.96794199491392
C         4.65484079575226    6.93021429113864    7.28394522439111
H         4.33406693142545    7.10587264205766    6.26699163149589
C         4.71299504387910    7.98020916492918    8.18323248355147
H         4.43830111609120    8.97763127223999    7.87215002207153
C         5.11941140057257    7.74365694335814    9.48672501708145
H         5.16372059123768    8.55448237757161   10.19998442002110
C         5.46338895069056    6.46689667875576    9.88304759921541
H         5.77554807570660    6.28677959398407   10.90256212336564

