75
CSD_code = ZEJYUK | q = 0 | S = 0 | Stoichiometry = C36H30F4O2P2Zr | MND = 6
Zr        4.45014924495320    7.35010939632132   -0.00001131700406
F         2.95716192308198    8.28974090427387    0.75835503541383
F         3.26309048416394    6.37677923014759   -1.13634864012018
P         3.45697591746176    6.34942454088912    2.61930099076006
O         4.23926377829219    5.84991980592929    1.43720964082744
C         1.66882401044069    6.45752122314117    2.32235202599292
C         1.16480058777995    5.99042760499582    1.11565867654005
H         1.85133187790476    5.63450489742768    0.35929609423747
C        -0.20115888471949    6.01562973209031    0.89072003922671
H        -0.59626177870621    5.66652811778956   -0.05151931251403
C        -1.05964732029678    6.49415018255366    1.86782571964880
H        -2.12459209344910    6.51818408163602    1.68794119416255
C        -0.55505372952201    6.94509453107769    3.07709402044014
H        -1.22544850024071    7.31649217852562    3.83857846261903
C         0.80890966146799    6.92412695289774    3.30856794456951
H         1.20660614480267    7.27386520481724    4.25039200389889
C         3.57354911267359    5.08520451581863    3.92861647171890
C         3.36209158993292    5.37985989001643    5.26862909328204
H         3.16987303863315    6.39992386002328    5.56944059128805
C         3.41854130672034    4.37277082530571    6.21570820414771
H         3.25823736357541    4.60358662365817    7.25861228532873
C         3.68408956641319    3.06896850308532    5.82816553203964
H         3.72817039609100    2.28514843553188    6.56983016097499
C         3.89750531062255    2.77153351013925    4.49193629386664
H         4.10857001583179    1.75596538562199    4.19119286257680
C         3.83923965051859    3.77814293749225    3.54432679423411
H         4.01199232652852    3.57441392863039    2.49701889768314
C         4.14532414625378    7.84522521656226    3.39283293736329
C         5.42020458573504    7.70166573790214    3.93191574736919
H         5.92146465453766    6.74512704152147    3.84870274791414
C         6.04022246060719    8.77954477976360    4.53454935966770
H         7.03591630456635    8.67472528940622    4.93969783932537
C         5.38508659871033    9.99921591481531    4.60687288175909
H         5.87176538443113   10.84483699540855    5.07095799710958
C         4.11491660550352   10.13977490873076    4.07373036538591
H         3.61283964114189   11.09501920573811    4.12210645815169
C         3.48859397067447    9.06428728919028    3.46530232294947
H         2.50940523182109    9.17635011187114    3.02469238799675
F         5.94305006659252    6.41000665224506   -0.75784498986856
F         5.63721708830836    8.32382654711726    1.13596460913937
P         5.44305846395917    8.35075706754892   -2.61953070411687
O         4.66083359319332    8.85020975464116   -1.43736355898564
C         7.23115797976352    8.24221021149324   -2.32241741637239
C         7.73519103144705    8.71002996542986   -1.11599919912224
H         7.04870068458283    9.06675738299182   -0.35997624581378
C         9.10110876179237    8.68436685598180   -0.89080973762154
H         9.49620745757777    9.03400089144530    0.05123242313143
C         9.95953821442516    8.20468298395348   -1.86739838389980
H        11.02444145254769    8.18030434466537   -1.68732063047047
C         9.45494182541800    7.75303230051578   -3.07639771421700
H        10.12528607958181    7.38069886479790   -3.83746932151442
C         8.09102838154190    7.77444134565291   -3.30812307937518
H         7.69334252959832    7.42407403476932   -4.24971499754421
C         5.32658450542560    9.61521907457640   -3.92865760920833
C         5.53921007789213    9.32096193664795   -5.26854762262709
H         5.73295412103075    8.30115599850097   -5.56935174385147
C         5.48261484433855   10.32816635771656   -6.21547644904646
H         5.64422129890966   10.09768380403385   -7.25830704109703
C         5.21583632091028   11.63165593186950   -5.82786260636630
H         5.17158193336749   12.41562148288589   -6.56945423376493
C         5.00128225773713   11.92869426679929   -4.49176657734053
H         4.78861276944851   12.94397583389558   -4.19103654319944
C         5.05961824594172   10.92197119361059   -3.54430380076990
H         4.88558832684865   11.12531845720270   -2.49709786425395
C         4.75466880300814    6.85501235173186   -3.39316393607943
C         3.48016252340521    6.99879532035146   -3.93307045394442
H         2.97917370603160    7.95553062545733   -3.85053705106381
C         2.86015226344987    5.92091432479097   -4.53570888463683
H         1.86473154302413    6.02592321849653   -4.94147893243241
C         3.51491673471952    4.70099916651317   -4.60722084407408
H         3.02822831134139    3.85537475620246   -5.07128895361954
C         4.78472365720029    4.56021075425288   -4.07327186927735
H         5.28652781050094    3.60479195066104   -4.12103222540536
C         5.41103041920294    5.63569739284293   -3.46482739612126
H         6.38992533100864    5.52343710700481   -3.02361922587377

