103
CSD_code = ZEKCAV | q = 0 | S = 0 | Stoichiometry = C41H56AgClN4 | MND = 2
Ag        4.64860544809556    3.97613234354820   11.78370284385741
Cl        6.73030469888688    4.75952655285415   12.18189313315582
N         2.19867988503457    2.99165625034682   10.20304010842248
N         1.53901973495608    3.64947919144899   12.12586853135427
N         1.55311479586730    6.10767644797648   14.84373276091501
N         1.14305303906030    6.25366602191968   12.54865802581427
C         3.01884713933843    2.47206154195403    9.16354203292764
C         3.40472383466622    3.29718824086147    8.10626656591013
C         4.16880652215355    2.74268168896749    7.08719036770484
H         4.48093757193252    3.35917527823812    6.25894397322635
C         4.54513997883850    1.41503396065819    7.12521953900060
H         5.14296658938747    1.00116634861459    6.32703011008515
C         4.17062784642527    0.61740655939639    8.18945557631537
H         4.48781857607174   -0.41299793380615    8.21636341355604
C         3.39654816974749    1.12615690078743    9.22278746109659
C         3.06034350913975    4.76605252900785    8.08166777437119
H         2.42848177076531    5.00359229228888    8.94338968479567
C         4.34997770579913    5.58074879982172    8.20540332412957
H         4.88375732164116    5.29866573093883    9.11624844928697
H         4.12224706006547    6.64217773736791    8.25312744625011
H         5.00550046391365    5.40330719104512    7.35677890731061
C         2.28949976174780    5.14244493874391    6.81512581030387
H         2.89605881934163    4.99056023193898    5.92623706303834
H         2.00136379652813    6.19019556787704    6.85625949093900
H         1.38763045369115    4.54041186249357    6.72192329725130
C         3.02253756948502    0.25162067622862   10.39648179520489
H         2.26088009038949    0.75978255801091   10.99586011174516
C         2.43592146199346   -1.08917314169696    9.95071644988062
H         3.18496935558479   -1.70744060579634    9.46422092823198
H         1.61243468885717   -0.93414893652379    9.25658135399556
H         2.06091877079516   -1.63300208572295   10.81495815509453
C         4.25578859377852    0.04266087529456   11.27954153507752
H         5.04028498306154   -0.46676264865048   10.72590202793675
H         4.00028503262884   -0.55435976135855   12.15202551072716
H         4.64604673173558    1.00694734396158   11.61749061991704
C         2.64955578019872    3.38015303406079   11.41278900756091
C         0.83033731494501    3.03419687504471   10.15538397524433
H         0.28083301821815    2.75980377331055    9.27858431697018
C         0.41531469170996    3.45851078622480   11.37169134246573
H        -0.56942036608158    3.63808840170323   11.74955055502877
C         1.54346518592327    4.08713235085992   13.48925560415427
H         2.48898539779492    3.77990104209153   13.94707126628479
H         0.72168127502966    3.61128135774132   14.03625391856657
C         1.40104235469467    5.58970583869873   13.59574187309818
C         1.66205903580361    5.35629086057983   16.04654631814868
C         0.50275586823897    5.07162946253395   16.77515285330262
C         0.62317059737361    4.36569300738634   17.96410306770012
H        -0.25808502970285    4.13979061029670   18.54474614877190
C         1.86145524320381    3.95357353851869   18.41706593977354
H         1.94128812411479    3.41115036131400   19.34743013269841
C         2.99793814938100    4.23606807837711   17.68394727348190
H         3.95934541471869    3.91407656630841   18.05107059574334
C         2.92112934735240    4.93385590333038   16.48580616631726
C        -0.85495519805530    5.53132880148122   16.29468494427400
H        -0.74017262265443    6.01634913936351   15.32041215145233
C        -1.44366145056891    6.55855398993346   17.26414296033989
H        -1.59646009732067    6.11966273320055   18.24685037394091
H        -2.40228116887787    6.91654183408941   16.89497518746827
H        -0.77386629179269    7.40938904167533   17.37063740846929
C        -1.80958481135769    4.34862071547346   16.11674059165465
H        -1.37699683369069    3.59941612611934   15.45586722668295
H        -2.74700816529013    4.69014158616444   15.68332790506330
H        -2.02763124698326    3.87455512003441   17.07002173253121
C         4.17419413930963    5.25822961272319   15.70758579939023
H         3.89792673765570    5.54693890441189   14.68742350596771
C         4.88584815069861    6.45238198108800   16.34851532028139
H         4.23382928293894    7.32345802644059   16.36838916399216
H         5.77538923833589    6.69705692722804   15.77423659816702
H         5.18101615206673    6.21953574264899   17.36945343064140
C         5.12350086505273    4.06360387796771   15.60363379319751
H         5.61423483075979    3.85949879666407   16.55180520934707
H         5.89239994872631    4.27826745090610   14.86474875764857
H         4.58803110269580    3.16635902118935   15.29157829787169
C         0.94723048105852    7.63626175878831   12.53926252461148
C        -0.36561725593101    8.12118272097165   12.46564368232043
C        -0.56829479366100    9.48660840461907   12.34170900451094
H        -1.57251879874336    9.87557754707914   12.27080969522492
C         0.50178853461502   10.36008145413870   12.30543464649000
H         0.32973658033740   11.42208393360834   12.20859785238533
C         1.79422942597101    9.87415053237785   12.38752315529710
H         2.61965543276438   10.56747725972315   12.35577799698216
C         2.04094678313077    8.51612651804802   12.50902248238837
C        -1.52794330406587    7.15343566636433   12.48495364866171
H        -1.17267104684937    6.20687582123956   12.90781209192337
C        -2.69365019597184    7.64569116544618   13.34289278703272
H        -2.34319403006058    7.95957616425551   14.32422272860430
H        -3.42233352629037    6.84748183049069   13.47358796691519
H        -3.19961234448500    8.48525276873407   12.87370192218398
C        -1.98551424904004    6.87898764378433   11.05011673597048
H        -2.32037289582930    7.79989106261530   10.57801237269178
H        -2.80736657093320    6.16497008743488   11.04037883298596
H        -1.16055686316366    6.47298895165361   10.46899318816937
C         3.44326180794081    7.95403269844247   12.54152584139375
H         3.44740976054151    7.06833178123418   13.18624306044955
C         3.82012005108758    7.48690630721074   11.13364260620294
H         3.86589812118798    8.33396254010573   10.45174073916299
H         3.07311312903195    6.78381756467501   10.76795369191372
H         4.79367149119617    6.99816275378854   11.15506896552025
C         4.49609881528768    8.91683368202941   13.08218504850163
H         4.67142058857206    9.73891645600864   12.39229018613354
H         5.43392094629217    8.38115552629476   13.20891007475101
H         4.19629210980107    9.32435453933476   14.04608210614684
H         1.42342607901124    7.10744303440184   14.92504947234327

