38
CSD_code = ZEKGIH | q = -1 | S = 0 | Stoichiometry = C13H7Cl2F12OP2Ru(1-) | MND = 6
Ru        9.59946079810318    1.66690536921786    2.77018120844282
Cl       10.50365282615874    0.78195973746450    4.79892903684659
Cl        8.20856876346893    3.17235742240447    4.05709978048340
P         7.46816423537976    1.12588144732065    3.09471729988458
P        11.25010756414017    3.00905210833193    2.15041031467295
C         8.74006803592473    2.57757483247439    1.08502790017835
C        10.27914303315431    0.23234180672001    1.83868807120233
O        10.67025232155998   -0.69009343544564    1.28519474532697
C         9.55492798982578    3.18907189758271    0.12318600869358
C         9.01611043498601    3.82727486787319   -0.98314764180380
H         9.67108741004616    4.29304407553022   -1.70656810739954
C         7.64473663816669    3.87091065446293   -1.15780934055508
H         7.22185865233619    4.36197609400945   -2.02186939447263
C         6.81985424886643    3.29653793573228   -0.21002470014793
H         5.74594675128073    3.34320195847094   -0.32750794574633
C         7.35647362957577    2.66269471697349    0.90356738363212
C         6.41595760790486    2.08822953396976    1.93877534757456
H         5.64871829593286    1.45530283489775    1.48019463372501
H         5.91658070633392    2.89473180295743    2.48862926341554
C         7.00345978915465   -0.58448122103913    2.30675071131214
F         5.69804003901905   -0.92916413896389    2.26136557403265
F         7.65692482827133   -1.62196623140227    2.83428869498801
F         7.40078296832927   -0.49989111848836    1.01491438988754
C         6.34050291308143    0.79410323877549    4.58479673330098
F         6.42765033807815   -0.48385094575223    4.96886980703065
F         6.52729754160111    1.53782502901744    5.66458688424165
F         5.05492838544646    0.98996196110158    4.21042192585292
C        11.05265064293932    3.16787825873204    0.33368271304897
H        11.55436160173599    4.04710273840226   -0.08334185720565
H        11.49035217295352    2.26194054766169   -0.10948932914916
C        13.13370581892659    2.79622867498581    2.23543872877877
F        13.67351100348785    3.16246841970853    3.39473488900207
F        13.79710595610031    3.46474279083113    1.26969129122791
F        13.40298220927986    1.50017576550350    2.03685104283229
C        11.24733007202153    4.84714723564962    2.60222968597259
F        12.15983944123247    5.56000467191262    1.90979012014672
F        10.05603549433031    5.37171998101985    2.29512784693058
F        11.47916884086665    5.07749868139483    3.89101628381179

