101
CSD_code = ZEKHEF | q = 0 | S = 0 | Stoichiometry = C35H61NNiOP2 | MND = 4
Ni        6.36058517947340   11.64360083011400    4.37409990211755
P         8.31067156239925   12.78434899405650    4.26513349007336
P         5.25754004237898   13.60973998626831    4.92818496995304
O         7.17716920680696   10.04441135411613    4.51348646691795
N         4.99811479599036   10.35220202070621    4.34560233482627
C         5.99306434238247    9.42609447740271    4.85036883754234
H         5.94117587829288    8.41505453086550    4.37918866557437
C         5.82740616773042    9.17778851822465    6.34327770492405
C         4.56961433705462    8.94567617407553    6.88369497325314
H         3.70787747175329    8.95675167118020    6.23486065848133
C         4.42370177003134    8.71230427665298    8.23858945045839
H         3.44005852026713    8.53509943314461    8.65143359945766
C         5.53284109339467    8.70384590513872    9.06886738572784
H         5.41681058727416    8.52287271362268   10.12831951602329
C         6.79019272631000    8.92286236646646    8.53370755220148
H         7.66080460987566    8.91050787241937    9.17472336605330
C         6.93609237989866    9.15480945917915    7.17766114937886
H         7.91350214046368    9.32303754347572    6.75067048780283
C         4.39758016646099    9.95226542660299    3.07935712385706
C         3.45291086431532    8.75594556890426    3.31190128798186
H         4.01428427385830    7.89830679280364    3.68613459450320
H         2.71723823253475    9.03200804067584    4.07089439481334
C         5.40838533869108    9.57341430388908    1.97834345764607
H         6.08239049582087   10.42009717843386    1.81136043144855
H         6.02132579444649    8.73185982221647    2.30364437919306
C         3.54007762594407   11.11584953076011    2.56717542188355
H         4.18868975158455   11.98409711401929    2.41831589110256
H         2.80690519272145   11.36252959351109    3.33673022231830
C         2.74300017682514    8.38146088822105    2.01156661157315
H         2.08690338969843    7.52311794571986    2.20100579250057
C         3.77085572715164    8.00917375871872    0.94468495511448
H         3.26130642564435    7.72092510767137    0.02154386812312
H         4.36388522472322    7.15546958883260    1.28104509167638
C         4.68512499522061    9.20573356396386    0.68718774339535
H         5.42635202223323    8.94022181928897   -0.07672736453088
C         3.85569324836960   10.39167617030130    0.19983094124427
H         3.34991412960323   10.13625653821360   -0.73486769138452
H         4.50784799693177   11.24710627700627    0.00524509657536
C         2.82735368288903   10.75332503667030    1.26890967581733
H         2.23251516935535   11.61110612668201    0.93054516088056
C         1.90664532518389    9.56057255590155    1.51825408335863
H         1.15310172453534    9.82181748252660    2.26505275150615
H         1.38612479064829    9.28898818843961    0.59644788637801
C         4.43057764696072   13.20343306786388    6.59460198857941
C         5.48036086893774   12.39819964739617    7.37130060415751
H         6.00938949863267   11.72332201428337    6.68410232675817
H         4.99897420565534   11.77640945033699    8.12379540059200
H         6.19884115731920   13.03400051030182    7.88469460373409
C         3.26123228584335   12.25395203439653    6.32673004339402
H         2.41344576783424   12.75740657761608    5.87488781554431
H         2.92486859694648   11.81257092612006    7.26420137928142
H         3.60640995941105   11.45240819971178    5.67125870233669
C         3.97879286755973   14.39252069198566    7.43833843536544
H         4.78188651314912   15.11312680755934    7.58181873099888
H         3.67589577831500   14.03125389690459    8.42111205728388
H         3.12301797872433   14.89640198772691    6.99674262725441
C         4.20576483129143   14.93922902392884    4.01789670671145
C         2.74433517724644   14.49864191181061    3.94401651063070
H         2.66873765168115   13.45447729480485    3.65851188551989
H         2.21925877863725   15.09280524143387    3.19561096041090
H         2.24096270993507   14.64907421391673    4.89501170632397
C         4.75231699485546   15.00786327675426    2.58946723675677
H         5.77216047804608   15.38514561937081    2.58315659748981
H         4.14509132871845   15.68370636277798    1.98777279998414
H         4.73683147066176   14.02821676791325    2.11808838652146
C         4.25389290670267   16.35439690629964    4.60068875572289
H         4.05830755909246   16.37154488282777    5.66746649475365
H         3.48603360384930   16.95454417062454    4.11242818731277
H         5.20784648182648   16.83995075210087    4.40755904592721
C         7.90342716110571   14.57258224205514    4.58088853055984
H         8.75160285557811   15.10371969717254    5.01970775346693
H         7.67166821734214   15.04679343162258    3.62672726116560
C         6.69322029959067   14.65618170840530    5.51235770202726
H         6.39356925772385   15.69441496549263    5.65261375138018
H         6.97887871213364   14.26003805926949    6.48539401024481
C         9.78899364943758   12.45273755090982    5.40894839875468
C        11.02271652437217   13.32260555691417    5.18203160944804
H        11.55637101567292   13.02585315354708    4.28398787504058
H        11.70435639336241   13.20041473595735    6.02374155259633
H        10.77447913321749   14.37906972993095    5.10531404616706
C         9.25486147082870   12.69258720788599    6.82489051771438
H         9.04540331050320   13.74566195813446    7.00367908372130
H         9.99318574442147   12.37483848547123    7.56082223521097
H         8.35007311767048   12.10733934157821    6.98278795905679
C        10.15845948303528   10.97028243562641    5.29784166108409
H         9.25991175694613   10.37131476049973    5.15977012723063
H        10.66451422846492   10.64164982718374    6.20501327491767
H        10.82766659334704   10.78308881631460    4.46364439620241
C         8.88085052584920   12.79774164449582    2.45545153921142
C         7.58776008768806   13.02026326403054    1.66140509487750
H         6.77367767512771   12.43540036477766    2.11232773041728
H         7.71071829885413   12.69839097692011    0.62802310676599
H         7.29905426223406   14.06779905859256    1.65009554718363
C         9.89776523448196   13.86476257743644    2.05700343791949
H         9.61222274403526   14.85091413900284    2.41672646954066
H         9.95773315525664   13.90882966782075    0.96940808235134
H        10.89042308828153   13.63765275507878    2.43139103601364
C         9.40099427801659   11.39844474722767    2.12348356329557
H        10.41457446507145   11.25616907757999    2.48659527114359
H         9.41162134527033   11.24382407718582    1.04479834891845
H         8.75447824024871   10.64689920209051    2.57781671917694

