41
CSD_code = ZEKHUU | q = 1 | S = 0 | Stoichiometry = C14H9F12O3P2Ru(1+) | MND = 6
Ru        5.66872937158232    7.68339825432400   10.59068117032151
C         5.43487498473593    8.01188732445107    8.50698324626286
P         4.01232969711780    6.22774861318712   10.06762238705251
P         7.33892690911985    9.18049685204015   10.20544870379513
C         5.98044599433921    7.27045192056983   12.46200371485865
C         4.38594806198417    8.99727503868278   10.95145649820647
O         7.33523634007385    6.21745943508320    9.96057978702110
H         7.76740255098883    5.62105802604152   10.58890759113398
H         7.33433373127434    5.78292093044362    9.09532411914718
O         6.15372419242281    7.03964162173348   13.54998094863688
O         3.60946983569023    9.79718871765268   11.13754048101376
C         6.42926884348529    8.65366808825131    7.75328663288472
C         6.29515386213148    8.83127611644215    6.38191086804516
H         7.07493035881164    9.33463664112594    5.83171641680871
C         5.17315336321731    8.36686846674358    5.72232264847447
H         5.07015518762982    8.51026287548104    4.65926454666646
C         4.18376594987485    7.71559819409489    6.43601579873798
H         3.30695903322760    7.34451337058897    5.92881660379574
C         4.30833486731723    7.54675192978797    7.80766606372943
C         3.19952052564343    6.84084414612197    8.56644952929803
H         2.41550254452680    7.55252639159510    8.86233919576664
H         2.73041562434632    6.03608952211496    7.98669096754676
C         2.60022084152285    5.72142834150708   11.20929504887273
F         2.21976674468562    6.84314956529446   11.83290745321866
F         1.56456271960770    5.23288036964259   10.54249883400876
F         2.99803650966121    4.84181188684684   12.11826129993853
C         4.63998221394884    4.52716179541558    9.55626090974967
F         5.40103518586411    4.68643676023521    8.45697924061921
F         5.45198370108988    4.05482377226049   10.50975218666724
F         3.69847043000072    3.64410464883948    9.29494624818534
C         7.69687886066673    9.15015371460211    8.42317242646209
H         7.99886353895708   10.14084791302543    8.06026206407203
H         8.53051917937787    8.45790468812309    8.24021753785197
C         9.03792929990862    9.09934429497419   11.02663296725680
F         9.33174486077532    7.79458218562552   11.16103664206006
F         9.98152202022309    9.66016516967196   10.28402837190447
F         9.02911016642593    9.64924225410392   12.23022601610616
C         6.90817676901332   10.98133219341530   10.51821684572794
F         6.50271151963571   11.14485028071868   11.77417975161894
F         7.91182581750086   11.80718459184833   10.26311518840516
F         5.88687779159318   11.28593309729196    9.70900304806944

