75
CSD_code = ZEKJEG | q = 0 | S = 0 | Stoichiometry = C32H25F12O2P3Ru | MND = 6
Ru        3.52343826803193   13.89004157688463   12.17579902120934
P         2.14386729217758   13.19926602825348   13.78593557553192
P         4.96962315343730   13.47824548052023   10.53643915604282
P         2.19648087025513   15.35971901310651   11.02429069768825
O         4.77995587373347   15.17193381891090   13.48281430968434
O         4.97993865469407   13.01463416015073   13.48322166490093
C         5.33358230853049   14.14279860090338   13.92653222022572
C         6.40998673402267   14.22501181055731   14.97372843791927
H         6.48444516119950   15.24232321053281   15.34619615272575
H         7.35501023702021   13.92184259104047   14.52692093069195
H         6.17639997340362   13.53559075170440   15.78164153628556
C         2.48442952375339   12.33986271386229   11.19260179411169
C         2.93954510877601   11.80733875712166    9.98205652734415
C         2.25892865285203   10.77923381990875    9.34395509803374
H         2.64170351577397   10.38847108759796    8.41235348851454
C         1.10322727708622   10.25708000236549    9.89062072359742
H         0.58036893889125    9.45350947665714    9.39607567411213
C         0.62231140162867   10.77722182138517   11.07708497094999
H        -0.28384662368793   10.38356320046582   11.51450681354299
C         1.29713683517492   11.80758178839182   11.71487415006070
C         0.72262412360991   12.38664291163958   12.99034490821787
H         0.25393841690020   11.62841629246441   13.62639022189703
H        -0.02093517489125   13.16291612102774   12.76744873807335
C         1.31557563421616   13.93167406101476   15.34202420717170
F         2.09434173777631   14.85853506976856   15.90601818726075
F         0.16758619123363   14.53223907367505   14.98622498012154
F         1.00086394484997   13.04790197843675   16.29157963617363
C         2.86326390869083   11.68138911692101   14.65761217417745
F         3.70454629348186   12.00368900169028   15.64259206633288
F         1.90502924851915   10.91441655304120   15.20977136781938
F         3.48986267222801   10.90792377472403   13.77826551288370
C         4.16774382738465   12.38127001603566    9.31460532313056
H         3.86582073580667   12.98915554023667    8.45170871538203
H         4.85245429669545   11.60071792490959    8.96387184225617
C         6.37282963293047   12.33755435789012   11.08548448229751
F         5.85819598098213   11.26631557662164   11.68157044680246
F         7.10196771423194   11.87833509636413   10.05206073055105
F         7.22988914574164   12.93243737067362   11.91804177179508
C         6.04347825826980   14.50689575965795    9.34721079055532
F         6.65601381481654   13.78835068835525    8.40035381275561
F         6.97499902277566   15.21217539492040    9.99031953182033
F         5.25462763182367   15.37707317856699    8.69464034771197
C         0.98442672833787   16.23547976522310   12.05813336753499
C         1.46578903204663   16.62446751087390   13.30712319491363
H         2.47104711737854   16.33539211305760   13.60210203823013
C         0.67755244063680   17.38583288383717   14.14838060817781
H         1.05320554141735   17.68591986081706   15.11488149955056
C        -0.59748527022882   17.75510117543218   13.74913181475199
H        -1.22009791965723   18.34092605055531   14.40835280321420
C        -1.07225872880925   17.38096301944692   12.50308545472360
H        -2.06272862271277   17.67856313085607   12.19141195491209
C        -0.28204316631465   16.63268458748011   11.64733814981409
H        -0.64983166585081   16.35740128849115   10.66925116610810
C         3.07565188203478   16.82641301389971   10.40105771195227
C         2.44053336963355   17.71207832024332    9.53354313492439
H         1.43812801969908   17.49886308581506    9.18859206085023
C         3.09885657576234   18.85135729460357    9.11298380869300
H         2.61052489376407   19.53335269194942    8.43250236870317
C         4.38224902856900   19.12113388476384    9.56364075890765
H         4.89374841891721   20.01125823207752    9.22885514385629
C         5.00531655671922   18.25517330541722   10.44587454397870
H         6.00147934580103   18.46769259873738   10.80373789962279
C         4.35286431356463   17.11038226419824   10.86886654098937
H         4.83447888787999   16.43893582654566   11.57049328644966
C         1.30566002927888   14.72524278461417    9.57396594008904
C         1.89194474664210   14.80002150457369    8.31316723435218
H         2.81259237573695   15.35241460065316    8.18466137364149
C         1.29215818858448   14.18185247982842    7.23077191317127
H         1.74911583777087   14.24878287984769    6.25426293375087
C         0.11334541530637   13.47408772668104    7.39797666217411
H        -0.34826061835395   12.98609517623371    6.55290433533289
C        -0.47241060107226   13.39307980131554    8.65057069480130
H        -1.39084794308026   12.84133460611410    8.78347884572816
C         0.12131759346503   14.01119734997824    9.73462934235963
H        -0.33447201764479   13.94692461669659   10.71158267540280

