104
CSD_code = ZEKKIL | q = 0 | S = 0 | Stoichiometry = C45H53N2O2PPd | MND = 4
Pd        0.55485239687638   12.09670676699845    1.00307986060312
O         0.08087184257375   12.44784821761553    2.84409641077318
O         0.93570489553134   13.40597278035757    2.39288753250713
C        -0.44135469721042   10.37330832808174    0.51444293317012
N        -0.30919707589142    9.34810843560435    1.35993243126910
C        -1.05934929968125    8.16492106228696    0.94033626397937
H        -0.36046196544517    7.42864687840198    0.52134710156858
H        -1.58647143634164    7.70188658021036    1.77361896659431
C        -1.98280541177896    8.74114371701834   -0.12677443844173
H        -2.99540447054270    8.93104802947158    0.25451761987991
H        -2.06174074491899    8.10290871075996   -1.00466158855340
N        -1.32914772069495   10.01994592266012   -0.43528524937763
C         0.31909800858157    9.37368767889234    2.63875781018777
C         1.71092090720189    9.31241307447900    2.75435208684034
C         2.26619213575844    9.20000503002646    4.02325797727534
H         3.33848437801667    9.14401171537497    4.13163762866703
C         1.46922839463517    9.16688580349532    5.14867579714076
H         1.91693535031325    9.07382994830135    6.12721845170758
C         0.09981566273560    9.29242893112894    5.02408978078588
H        -0.51216197651720    9.31833310543013    5.91239821966052
C        -0.49819288340088    9.40406557079836    3.77767084847306
C         2.62379090151338    9.42679212859372    1.55513088859508
H         2.01745554653436    9.54047087371122    0.64760190157470
C         3.50106363693975    8.18631007574026    1.38049078388425
H         2.88732633878416    7.29232920833865    1.28542240450335
H         4.16639430159821    8.05363366520590    2.22979133497943
H         4.10597953042559    8.28732805352218    0.48144226649486
C         3.47533606679358   10.69265170799661    1.71342367386610
H         2.81789976978030   11.55179088079350    1.91352294951485
H         4.05153948999538   10.87989754581856    0.80847031474841
H         4.16686035791724   10.59444445795201    2.54697763025756
C        -1.99032251026894    9.63515148102606    3.69667623593348
H        -2.29131424396073    9.71046418335997    2.64854370635522
C        -2.32536770273897   10.97794506573180    4.35186619248345
H        -1.69396771513614   11.75484523467727    3.92546594022526
H        -2.14821756789907   10.94415559489605    5.42343245157019
H        -3.37128571085804   11.22786536972211    4.18324157983210
C        -2.78311735492123    8.49630860513200    4.34328099906662
H        -2.52290009891570    7.53375751730334    3.90412864850285
H        -3.85024672824180    8.66036164431089    4.20614244116788
H        -2.58346462549048    8.44275654594402    5.41012276036235
C        -1.92927688514019   10.92357555127020   -1.35438070796254
C        -1.88356340228740   10.64660407883517   -2.72807929749174
C        -2.49121123092343   11.53161863336561   -3.60730236417096
H        -2.46850136214441   11.33121607873453   -4.66675289182346
C        -3.13356824688217   12.66298165380435   -3.14850466812333
H        -3.60098633287209   13.34020590029603   -3.84761007229915
C        -3.19850174455585   12.91001041783887   -1.79345198691638
H        -3.73249332163496   13.77906783273018   -1.44176655058293
C        -2.60931422084537   12.05251265647688   -0.87246509874218
C        -1.26473622357234    9.38228075617599   -3.28472200930889
H        -0.69069415613979    8.88774844993286   -2.49641798741237
C        -2.37537262010996    8.43571472336146   -3.75738725016824
H        -3.10390148393740    8.25286006588499   -2.96985570412416
H        -1.95289721156744    7.48277129550141   -4.06987889249923
H        -2.90339259745207    8.86993212422491   -4.60275535342374
C        -0.30273726973743    9.65972531751711   -4.44073032579460
H         0.44519146118614   10.38892405469313   -4.14597031625663
H        -0.82927671191521   10.04015931337141   -5.31144363761692
H         0.20242449485583    8.73985011600583   -4.72847229801403
C        -2.83170668802031   12.32334767819002    0.60021853751937
H        -2.27892082141122   11.59814496859647    1.20935998111763
C        -4.32177956039655   12.16632459806557    0.92462944976772
H        -4.48099579541442   12.27977865545388    1.99434963695343
H        -4.68286012699780   11.18384529308922    0.62303699496497
H        -4.91544844542203   12.91709309491581    0.40863295797032
C        -2.32931372086655   13.71018134261123    1.01082268373010
H        -2.55243396167567   13.87949189650330    2.06241198041717
H        -2.79334588668094   14.50025532622926    0.42457071399744
H        -1.23630959206631   13.76358718473681    0.88733612671004
P         1.74626744791555   12.59950686717333   -0.86032713337005
C         0.84322982208392   13.23185726598451   -2.31561438484357
C        -0.11888235501006   14.20070648179849   -2.04931119987701
H        -0.30797557023701   14.47532952744515   -1.01734278834062
C        -0.80282630540949   14.81033025123590   -3.08230135875561
H        -1.53859531416512   15.57188388490119   -2.86986385125299
C        -0.54069853119062   14.44548431118483   -4.39318820104844
H        -1.07542128910231   14.91766520051784   -5.20429385621695
C         0.41277722560678   13.47972217209343   -4.66459843878715
H         0.62370807756794   13.19942796972766   -5.68689246942879
C         1.11239141221531   12.88007303763595   -3.63183151351389
H         1.87914652193125   12.14879461702346   -3.85057779258135
C         2.96202821238161   13.96719293704878   -0.71821004501877
C         3.29526049136103   14.44158508770940    0.54500601573979
H         2.80930759526898   14.02578133947706    1.41955813055634
C         4.21717312277656   15.46577596693230    0.68196178427243
H         4.46987432701190   15.83040380417261    1.66655840489714
C         4.80685518442579   16.02493738895252   -0.43839464736603
H         5.52427441467761   16.82575918767379   -0.33227051872298
C         4.46871269199828   15.56308737058763   -1.70134546266339
H         4.92118963634118   16.00415916080796   -2.57819939826444
C         3.55054395592861   14.54036847639895   -1.84400769778586
H         3.28600758278907   14.18668567373990   -2.83121940611048
C         2.77170560035701   11.28151733369121   -1.61002801955137
C         4.14621189035448   11.35709666502721   -1.80378723999980
H         4.68132200807916   12.26102938085837   -1.55023068654705
C         4.83621615971411   10.27157420601079   -2.31735311466611
H         5.90441665061924   10.33976979730768   -2.46525302403940
C         4.16778219060967    9.10167991019361   -2.63584541435188
H         4.71219177960459    8.25805522156601   -3.03415178055839
C         2.79939549898906    9.01366723244938   -2.43307638929390
H         2.27465108446169    8.09967700030863   -2.67182139952151
C         2.11185831194133   10.09434561786148   -1.91649401840964
H         1.04726616108997   10.04259446888502   -1.73654628361442

