48
CSD_code = ZEKKUY | q = 1 | S = 0 | Stoichiometry = C17H25ClN3OPt(1+) | MND = 6
Pt        1.34335020903437    4.44992688336024    3.97619165216884
Cl        2.10553940207523    5.60472327991163    1.16647732400725
O         6.55304624166295    5.34491204175319    3.56358822685686
H         6.67588680340540    5.86597052271251    2.76300400359414
N         1.76893651233150    2.77163993199103    5.39852760845246
N         3.65226413326783    4.56047519246130    4.16375595578682
N         1.99073540668714    2.80201427939355    2.61077346706224
C        -0.68719086880643    4.19229687269925    3.71237455287766
H        -1.27994596574256    5.05699539775667    4.00321408202924
H        -1.01295644532681    3.33769548055601    4.30532181886339
H        -0.86618247778794    3.98959404269448    2.65488698210563
C         0.84920504449102    5.74768471288713    5.49340340576568
H         0.25987923426565    6.60752321046072    5.18190606776646
H         1.77089077054528    6.11125929850459    5.95212999667482
H         0.28339960051828    5.19807046609387    6.24689048515719
C         1.19556884622433    6.00231148610453    2.62881531729188
H         0.17693705792884    6.22493131310160    2.30409017680581
H         1.64446579948094    6.90945626597241    3.04455258366581
C         4.22284500895492    5.91965442540005    4.15335710836906
H         4.03768740930421    6.34520711887370    3.16421475276456
H         3.69006430518988    6.52453531274921    4.89120596961731
C         5.72802502637934    6.03606899062517    4.46839005316382
H         5.97490707080379    7.10344022434657    4.49605052349581
H         5.95147770276268    5.62295778164826    5.45491088096388
C         0.97410928840948    1.73977869390530    5.66057441326437
H        -0.07998719473249    1.87906596897954    5.46607865654095
C         1.43876651406231    0.54148970437744    6.17238627822319
H         0.75205586638045   -0.26378184702194    6.37451423927440
C         2.79689755801860    0.40810459565175    6.41459000974843
H         3.20249716091841   -0.51242901288394    6.80392113715763
C         3.62437515971710    1.48717370249991    6.15347000173038
H         4.68453159994399    1.42541826099181    6.34248323538039
C         3.07573425976233    2.66031108013938    5.64998889373749
C         3.93362234061232    3.87741161683610    5.43239016200071
H         4.98902887294912    3.58193735826186    5.49275980653507
H         3.72654145860937    4.57571769192463    6.25215850879602
C         4.18216300788546    3.76789711696436    3.04329628803821
H         4.24194830746854    4.42156003529160    2.16588440790223
H         5.19643414149736    3.41366758665767    3.26186268981955
C         3.31145867435079    2.61134697615556    2.63967686235109
C         3.88366985247636    1.41505150116390    2.22191316228067
H         4.95463298517419    1.29145474243042    2.25663587633790
C         3.06817812028469    0.39956669638903    1.75426161570117
H         3.49188999393371   -0.53564672745950    1.42341390727717
C         1.69902020520472    0.61432176362244    1.71346897415041
H         1.02486811211092   -0.14112898106323    1.34504912882486
C         1.20761756854179    1.82814775852720    2.15797570912056
H         0.14621031877002    2.03131918560038    2.13991304050357

