49
CSD_code = ZEKLIN | q = 0 | S = 0 | Stoichiometry = C20H23N3O2Pt | MND = 6
Pt       13.30535533590798    6.83447259065614    7.51193688876553
O        14.31700843314956    6.92703451690881    9.30125649230015
O        12.26055795058135    6.54858167726290    5.80247179841592
H        12.20615453555943    7.35651687483941    5.28718373946120
N        14.61681111118505    5.09125437557262    7.02509519126914
N        12.31264249946233    5.09591800053888    8.53496727675809
N         9.96071710347085    3.05518373567200    8.80906202558651
C        12.01656166567834    8.30648758115855    8.12154467257440
H        12.35612945405101    9.31550044745286    7.89600526313203
H        11.91494577800430    8.22536545469456    9.20496978039273
H        11.04327566753116    8.15108531205528    7.65259003849900
C        14.45139192239833    8.24813722933211    6.55984355652962
H        14.95461278450190    7.75606889458035    5.72486238898786
H        15.18999583013085    8.60672846161897    7.27757654994922
H        13.89572094855900    9.09998923060176    6.17020914289885
C        15.91858510446429    5.07339582575978    6.78571352530808
H        16.39751150438497    6.03572820180324    6.67017085811527
C        16.64209339494467    3.89691558897792    6.69263709545444
H        17.70250957259912    3.92387687604380    6.49950557361504
C        15.97173978348400    2.69472896217720    6.85640815978318
H        16.49989378261314    1.75518175804809    6.79091049109299
C        14.61311119718577    2.71966484618949    7.11881798669653
H        14.05849915103308    1.80586531865949    7.26513179659162
C        13.96288058163272    3.94475538102290    7.20156047529555
C        12.50132212739631    4.05824383077814    7.51409419351814
H        11.97218625984832    4.38863471484274    6.61078099613934
H        12.09165840826755    3.09126059941493    7.82832702883953
C        13.15677710813755    4.86759174788144    9.69451950849742
C        14.12675312147918    5.85064288758937   10.00696826374038
C        14.92634575457954    5.62482887099210   11.14630458973940
H        15.65641624897970    6.37957471310742   11.39664486280882
C        14.79515221429389    4.48343461152662   11.90098233876852
H        15.42726003769410    4.33996849495071   12.76571020894257
C        13.87239508942294    3.50843872160439   11.55088665930184
H        13.78459939187910    2.60038717060145   12.12784748973904
C        13.06400266582168    3.70811935720254   10.44761044796006
H        12.35727005268530    2.93966134443007   10.16881331007222
C        10.89523806354801    5.28854414019339    8.86933097361464
H        10.37393099938101    5.49444161029847    7.92933106219762
H        10.82273929432151    6.16223520307722    9.52119183078450
C        10.22899713387419    4.12192250179168    9.55422370900206
C         9.91536649236495    4.17324734309469   10.91057683803974
H        10.15169072216707    5.05235598747814   11.49029145140629
C         9.31009629833953    3.07633328178745   11.49834792820987
H         9.05689661015111    3.08704250305009   12.54854388399554
C         9.03866657771038    1.96343664718899   10.71691480624534
H         8.57052853413217    1.08617305874029   11.13515015205035
C         9.38722132059418    2.00899410233525    9.37668158458071
H         9.20138438041770    1.16954941441670    8.71859511433310

