94
CSD_code = ZEKLAC | q = 1 | S = 0 | Stoichiometry = C36H50NP4PtS2(1+) | MND = 4
Pt        6.70028354881025    5.18937226451679    4.22026271316016
S         7.55806780337913    6.80025826119785    5.82598141496201
P         7.99242753714104    8.41720240600629    4.68978339142452
N         6.70037191796676    9.27910941575032    4.22185621327788
C         8.92583379729318    8.64677240343230    2.09199161511346
C         9.69576273599020    8.28407363260650    1.00245007864760
C        10.53863545697922    7.18668113449028    1.08320392342629
C        10.60795708307230    6.44302714976593    2.25047681908551
C         9.83303441696975    6.79453530259007    3.34169499365651
C         8.99442240896359    7.89837444528213    3.25927592811776
C        10.25784307058357    9.10301718321207    6.11973447366655
C        11.03879741554941    9.95725775340663    6.87484517513216
C        10.57990403048267   11.23058621264682    7.17646015436818
C         9.34026283689180   11.65341274063303    6.72448662934803
C         8.55203692218428   10.80286816358760    5.97053423622377
C         9.01454744346968    9.53024724256589    5.67068615176227
P         7.36371065614426    3.71899252398568    5.92111608850135
C         6.86030956356171    1.93811046867042    5.89903040233498
C         7.10617728654478    1.16738556079909    7.19173765973593
C         9.19681419532158    3.65480114045019    6.00206646169556
C         9.77419803584101    3.28633582047173    4.63855357040300
C         6.86259997223932    4.26347878324642    7.60126844909826
C         5.34800536383686    4.41350189223519    7.67172310097846
H         8.26150991256573    9.49853931089203    2.04591604937419
H         9.64035854682924    8.85895742602999    0.09062114943889
H        11.14210766432769    6.90810238916255    0.23281590891309
H        11.26451677674294    5.58764423988931    2.30965839044603
H         9.87757780145649    6.21933663382924    4.25685032700690
H        10.60541489924128    8.10819018118933    5.87641325966868
H        12.00581169463272    9.63252322182097    7.22811879055879
H        11.19257606710307   11.89546865511059    7.76601027882504
H         8.98772655541139   12.64619677364781    6.96004851616312
H         7.58364524802145   11.11153302122205    5.60532420862450
H         7.42300849165625    1.47007230061698    5.09079620515169
H         5.80007054044969    1.89921323595106    5.64131125254677
H         6.94008171188165    0.10736623400406    7.01072664830435
H         8.12829819529861    1.28694277503141    7.54222313628294
H         6.42658479057789    1.47712296438295    7.98007724661858
H         9.51339503828141    2.94813913199292    6.77195621842028
H         9.52579357861942    4.65256785078285    6.30266181502392
H        10.84170119146317    3.49044291444837    4.60333826460297
H         9.62865558713296    2.22979569418073    4.42543701342375
H         9.27660066644718    3.86946740344923    3.85764418823866
H         7.33905798480808    5.22469634877983    7.79903741519147
H         7.23239040267611    3.54124388112111    8.33141050361689
H         5.04632999160587    4.80591037921335    8.63944191812973
H         5.01753828448582    5.11250725698710    6.90320846673996
H         4.84662106122813    3.46074402860523    7.51467070786938
P         5.40861549176763    8.41698228752458    3.75348032426879
S         5.84377297927206    6.80089602763970    2.61705312168503
P         6.03649689229967    3.71848638995690    2.52271747612852
C         6.53961302582390    1.93753068195970    2.54434827113797
C         6.29333554229787    1.16710049266668    1.25155505119127
H         6.45939716971868    0.10704853501448    1.43238534056527
H         5.27112159206977    1.28679692323147    0.90139095384873
H         6.97275277641376    1.47690047294907    0.46308274852146
H         5.97704208165834    1.46949815997892    3.35266491547682
H         7.59991156598791    1.89850577519009    2.80177592524373
C         4.20341738019956    3.65498084189109    2.44083160482308
C         3.62467373274173    3.28364674850213    3.80293124219528
H         2.55693932123988    3.48678436381507    3.83703140740085
H         3.77079096208384    2.22684162399912    4.01434010381464
H         4.12069937151509    3.86582038191229    4.58547453114204
H         3.88726988133430    2.95013809340562    1.66909527064417
H         3.87486552145511    4.65346911705255    2.14215788077772
C         6.53765744114907    4.26332479911454    0.84263969605291
C         8.05218733904834    4.41383827013969    0.77211624017897
H         8.35369976404000    4.80663748364268   -0.19549622462418
H         8.38239448508044    5.11274904685722    1.54081865204825
H         8.55388564223066    3.46119969054223    0.92887924439136
H         6.06085388160664    5.22431721415584    0.64458724427031
H         6.16818589342184    3.54090334994055    0.11252533376066
C         4.40649363190765    7.89778932300586    5.18374659855566
C         4.47485798144131    8.64624876280970    6.35099656411878
C         3.70453690869111    8.28377958771116    7.44032632395585
C         2.86141631313305    7.18659322884235    7.35935300038833
C         2.79238264613486    6.44281693605351    6.19213575793798
C         3.56780415674791    6.79401429156081    5.10116868254678
H         3.52353915908147    6.21863275510177    4.18610521629548
H         2.13558872319295    5.58762215391209    6.13278149472026
H         2.25751286463323    6.90828559547829    8.20952217841337
H         3.75976048298967    8.85873817263292    8.35211799295408
H         5.13930218310314    9.49791342782939    6.39719846832683
C         4.38636912749024    9.52976229843622    2.77243729319878
C         3.14315638175127    9.10235323016582    2.32334741850648
C         2.36212602325742    9.95648726708521    1.56819888599841
C         2.82088032464991   11.22986279544696    1.26656916603105
C         4.06048403097260   11.65282567157795    1.71852160319551
C         4.84878136554956   10.80238594749543    2.47250220714860
H         5.81715340181674   11.11113422437310    2.83769533278389
H         4.41294091768527   12.64562844807594    1.48292906706118
H         2.20812951941803   11.89467524458436    0.67702690339974
H         1.39514947733835    9.63163675633768    1.21492681571316
H         2.79567846239064    8.10749095652911    2.56666915056683

