80
CSD_code = ZEKLEG | q = 1 | S = 0 | Stoichiometry = C30H38NO4P4PtS2(1+) | MND = 4
Pt        4.39898862989513    3.15877593547292    2.51095800370812
S         3.20244938768808    3.63599744059310    4.54073507828268
P         4.14574709598411    2.19967277100753    5.57967730900579
N         5.65750450227470    1.80525788181899    5.21955129991364
P         6.64241497814300    2.57230571961540    4.22731416101810
S         6.25723665760514    4.37823887129796    3.46081213474937
P         5.58774589666453    3.07483214245614    0.52212798877520
C         7.31162083618937    3.66289894510963    0.48352700250129
C         5.74736191626934    1.48558503625619   -0.36826804553835
C         4.81083507954322    4.21952422440653   -0.67319517752769
P         2.35104962136295    2.38129185547532    1.74841692901248
C         2.13541789176696    1.50578584667673    0.15100054199309
C         1.39334106846606    1.28729926172034    2.84760578566650
C         1.28803329444103    3.84953154055038    1.57095026616411
O         4.05621738730441    2.49369781228827    7.13834056053120
C         5.59157473478152    4.36743380645605    7.22987798963252
C         6.55464356022670    5.07570581219185    7.92937261381666
C         6.94435836525726    4.65943752354241    9.19063091585779
C         6.36595873407696    3.53521177153602    9.75734744406537
C         5.40751753526506    2.81735910684917    9.06395796062384
C         5.02489154538361    3.24224482448239    7.80140914546812
O         3.20845846805932    0.93054120063429    5.43213471563071
C         4.60977193556580   -0.66863726432170    6.62734225409785
C         4.79934068168435   -1.97320060102947    7.05247427062275
C         3.85621690259950   -2.94638022215800    6.77333095277662
C         2.71071204787781   -2.61330508356996    6.06996006104937
C         2.51204040563345   -1.31444916405253    5.63750434777475
C         3.46913076847019   -0.34918498418642    5.91568114588380
O         6.88673322394519    1.55865993459439    2.96568051929870
C         7.38058023484528   -0.65427468612882    3.78977217454224
C         6.96981762368773   -1.95828043647088    4.01110093768342
C         5.69916067529207   -2.36487477953481    3.64167999053296
C         4.83016293643681   -1.46676257568998    3.04454598039863
C         5.23152275230505   -0.16250274155889    2.81879454681695
C         6.50780064562249    0.23351246488799    3.18588700602640
O         7.98093960934246    2.58904951203648    5.06737656746963
C         9.69218247219194    3.50593767646511    3.62971085584198
C        10.78288379170625    4.34361680904611    3.46922286531715
C        11.24031611882814    5.10023857174536    4.53418599377562
C        10.60869160573900    5.01832831282170    5.76453998952682
C         9.51455379632477    4.18822659167113    5.93422857533513
C         9.06486145015382    3.43603894961583    4.86070543256713
H         7.65158199874515    3.66942403264435   -0.55214783301973
H         7.37671583767967    4.66622316957864    0.89962598777327
H         7.94022546667922    2.99428949577837    1.06583036106569
H         6.24020140083678    1.66552856111282   -1.32270555554274
H         6.35645575308274    0.80879647761122    0.22778429513339
H         4.78019849524202    1.02536331582454   -0.54273398390638
H         5.36274231715769    4.21140899285569   -1.61153655700214
H         3.77354799175888    3.95283552965634   -0.85801085653569
H         4.84058543627273    5.22173640964930   -0.24678453040244
H         1.06749041380442    1.40027151800844   -0.03627994741705
H         2.58318458499390    2.05739955764126   -0.67084065159346
H         2.58017384583289    0.51410586094773    0.20700562456911
H         0.41572562355753    1.10962808463609    2.39988232427163
H         1.91555034192662    0.34064772356115    2.97402709985169
H         1.26949082971067    1.75403904698054    3.82185240470262
H         0.28856292070210    3.55301258429957    1.25617900121984
H         1.23726987451329    4.35848154454266    2.53256969335093
H         1.71619408270330    4.53235943177961    0.83900009419358
H         5.26726686630057    4.70076543434937    6.25389914010769
H         6.99299097559998    5.95516053849081    7.48229105555424
H         7.69412365418044    5.21338189302889    9.73413247160202
H         6.66321525290062    3.21058566097267   10.74214948364680
H         4.94986049162102    1.93612483012367    9.48547725577150
H         5.34215743480895    0.09402258669979    6.83750013386568
H         5.68933218456941   -2.22347665606008    7.60869979142749
H         4.00806248367453   -3.95998347879767    7.11005511823026
H         1.96473197110278   -3.36392228060928    5.85902222176979
H         1.61776791866271   -1.03708045868438    5.10149001183718
H         8.36060769030462   -0.31629578116099    4.08951858959674
H         7.64437276385727   -2.65409012740032    4.48472063023805
H         5.38056930629690   -3.37830023524343    3.82717822374342
H         3.83686987255366   -1.78232036053669    2.76432194304525
H         4.56462751934093    0.57229037411151    2.36844487055070
H         9.32866549718837    2.89618135592319    2.81565198525891
H        11.27417033024262    4.40108043004048    2.51018700941576
H        12.08967860918957    5.75264456913309    4.40589037504822
H        10.96451691054630    5.60551952201792    6.59664799241912
H         9.00212818702360    4.11217523195226    6.88079563543095

