69
CSD_code = ZEKQIP | q = 0 | S = 0 | Stoichiometry = C36H30BrNPd | MND = 5
Pd       -0.31877736734020    5.03824173411335   13.19561909490054
Br        0.93210964329879    5.67898526307517   15.09783952153696
N        -1.96150348185553    6.55696889107809   13.89009510428602
C         1.08077526439612    3.89436815844236   12.31682673335578
C         0.28921339864042    3.18194642389935   11.51314630668892
C        -1.12130979489120    3.64785195108477   11.77640093717570
C        -1.47569067771563    4.93407955898976   11.39551388398686
C        -3.27560706762005    5.91365095067469   13.86211462757629
C        -3.19425507485176    4.62911781859075   14.69792523851942
C         2.51247632084607    4.03354236440259   12.46937781650938
C         3.19281529769742    3.48810966606558   13.56087901016539
C         4.55812845160938    3.65386003705414   13.68002624299848
C         5.26154041187443    4.37042034382385   12.72488641025406
C         4.59273216101992    4.92236921931284   11.64390018123033
C         3.22795146620810    4.76021900755247   11.51165469670569
C         0.58613604615604    2.11814085431883   10.56461345241742
C         1.87779335107305    1.60462981131752   10.43685015513239
C         2.14778218131272    0.60855281700612    9.51959751404132
C         1.13882404127375    0.10238961270731    8.71568032378909
C        -0.14775200705105    0.59962074304640    8.83868111804092
C        -0.42341764912068    1.59763882409181    9.75292512230856
C        -2.02047819469114    2.64392010826325   12.37887176660248
C        -1.55053971792062    1.91891391584827   13.47848582328262
C        -2.33720384010343    0.94978334048489   14.06893170199300
C        -3.59990303897858    0.67909885710239   13.56547373337389
C        -4.06808532072027    1.38283407420926   12.46934522458650
C        -3.28720577802988    2.35896783833393   11.87636706199802
C        -0.54009935631123    5.68802537653565   10.49689835393686
C        -0.18710409242142    5.17308235878401    9.25198790148865
C         0.69676894770443    5.85382834228642    8.43360598320505
C         1.24269340501850    7.05781235396382    8.84390386697066
C         0.90079846884854    7.57996796254704   10.08039901179553
C         0.01505805179511    6.90419692287441   10.90180813990686
C        -2.90664781051055    5.36280497398604   11.34960151588334
C        -3.45987874316551    5.35464036081907   10.06493035953542
C        -4.79768035106881    5.60255262976733    9.84139863242084
C        -5.62715545541994    5.86935402074187   10.91672012914894
C        -5.08562769686107    5.93153365313024   12.18401756521635
C        -3.73394341420874    5.69806297262491   12.42941508504651
H        -2.00353053734571    7.46169508057890   13.41860675031469
H        -1.68291500236375    6.73108906857775   14.85980047930064
H        -4.02858479633083    6.57231105011578   14.33048025553065
H        -3.31902046212849    4.86150308655364   15.75376126224454
H        -3.95953764842618    3.91669412326292   14.40131868615419
H        -2.20377492763837    4.16517599896771   14.56956188128454
H         2.63970518564554    2.94373225080418   14.31363410520217
H         5.07583422537974    3.22948415757228   14.52748069597173
H         6.32829730773219    4.50484562429005   12.82650461123807
H         5.13754957932461    5.48665084209491   10.90068895984395
H         2.69922346316237    5.18946269416671   10.67122614930858
H         2.66742015934442    1.99089567702447   11.06292570389109
H         3.15281269727197    0.22238324288338    9.43125117874712
H         1.35345244089113   -0.67639060769331    7.99899422818352
H        -0.94100946987318    0.20806807235414    8.21782727737575
H        -1.43177903564783    1.97657092035920    9.84113867743584
H        -0.56076092613972    2.13634918436402   13.87858348824221
H        -1.96613321911948    0.40349057928386   14.92318443983915
H        -4.21522762307116   -0.07987297510769   14.02491458200301
H        -5.04890148921778    1.17145923568255   12.06888477475498
H        -3.66158572440297    2.89274179948965   11.01544208774768
H        -0.58790644079644    4.22266708280617    8.92965339930067
H         0.96526671445435    5.43428176840979    7.47524254416845
H         1.93916091319224    7.58304202640952    8.20765749330020
H         1.33329375700626    8.51199207510822   10.41302921498389
H        -0.23732714021430    7.33434605005285   11.87364170300112
H        -2.81682539555258    5.12856637629204    9.22689755510480
H        -5.19064251223593    5.57913789405987    8.83612335248869
H        -6.68106644045427    6.04783612798620   10.76758016311413
H        -5.72811863035882    6.17410738030477   13.01894895191299

