71
CSD_code = ZEKZEU | q = 0 | S = 0 | Stoichiometry = C30H35ClNOPPdS | MND = 4
Pd       -3.84174371164542   10.75741813155275    2.00735294960508
C        -3.54100319446740   10.61233213389304    0.03053323632860
C        -4.33079659245774    9.92632186442999   -0.91293983111195
C        -3.94400691713683    9.82069593845790   -2.21979098136564
C        -2.74301176308298   10.40545785289047   -2.66712660943805
C        -2.34105795974948   10.31253271915469   -4.01546023191007
C        -1.18426366352802   10.89639003700769   -4.44575764975050
C        -0.38173660843879   11.60301385401213   -3.53844430186445
C        -0.74227776967057   11.70903854905320   -2.22441905800331
C        -1.92807448798357   11.11152544637348   -1.74002955219155
C        -2.35066730564473   11.18086511827847   -0.38730289815204
C        -1.57358950553056   11.95002590296184    0.66131188032325
N        -1.82372722800681   11.30990423854692    1.97336877949100
Cl       -3.96687794200743   10.68437984929337    4.35746228432870
P        -5.91486401071590    9.99800708349537    2.02931614917635
C        -7.30110004611389   10.97143281115611    1.26069390220184
C        -8.52288564956881   10.18729288820273    1.67599400795993
C        -8.36732717205902    9.68925971692097    2.90711484561180
C        -7.05428096272079   10.14520472840503    3.49038664239562
C        -7.15839820789108   11.67873132790217    3.61388574363124
C        -7.19019362342935   12.20334844501645    2.17455441601391
S        -5.57303918276063   13.10796783561059    1.95040933811075
C        -5.68548902010881   13.26232885162722    0.14937995339769
C        -6.10472554223388   14.38413479492069   -0.39339034766010
O        -5.84210509715791   14.45221805430319    2.46551477735038
C        -9.70550348575008   10.12220954556486    0.76876375277979
C        -9.31141656749566    8.88835683699048    3.73290841928500
C        -2.06249970155983   13.40275013728676    0.62992762962056
C        -1.10142149135776   10.03516964140742    2.04576494721173
C        -1.39166300105233   12.15206493861633    3.08851587881269
C        -5.92271342508061    8.23375035178203    1.59862018309291
C        -4.73744787313284    7.58964795351261    1.95909695459864
C        -4.57505456971511    6.23892032037979    1.71763046712342
C        -5.58820324278167    5.52394064317747    1.09786303380066
C        -6.75783278222592    6.16287046109937    0.72143627346728
C        -6.93127249755158    7.51387095366078    0.96911218357860
H        -5.26842082978303    9.47441706830635   -0.59959737519893
H        -4.55886813911226    9.28907602952546   -2.93348784142420
H        -2.97269128225543    9.76831904243043   -4.70368168345562
H        -0.88170336418206   10.82195629633979   -5.47989533573991
H         0.52912711955977   12.06787159631816   -3.88747310111404
H        -0.10823417599013   12.26611035471923   -1.55160233178336
H        -0.48842951428000   11.92997783701244    0.47012922373170
H        -7.25611234918130   11.21008985479421    0.19895917265001
H        -6.74279225352604    9.65152416693842    4.40864577640582
H        -6.29066199710890   12.07822477981483    4.14632029802524
H        -8.05375448711236   11.95678550134603    4.17273560994365
H        -7.96209572099702   12.95169996520127    1.99437181106361
H        -5.31068882117827   12.40369523660539   -0.38601783317068
H        -6.15444432067487   14.54703001468005   -1.45739952584269
H        -6.41134775753372   15.19410726855750    0.25059477512566
H       -10.43603257972383    9.39803837291451    1.11912276498254
H       -10.18788394992146   11.09917195447001    0.71693118740755
H        -9.40001134823497    9.85341006449248   -0.24255885290727
H       -10.22235922745612    8.65383318518372    3.18929179049696
H        -8.83408343969177    7.95752539398790    4.03925884028881
H        -9.57621318483783    9.43733849251190    4.63642230988957
H        -2.09256866898589   13.74540502410942   -0.40231270622015
H        -3.07570796510332   13.46321694207757    1.03819218061027
H        -1.40946617206420   14.06696381354747    1.19070549729249
H        -0.01478097720987   10.20420895828467    2.05753869654922
H        -1.38418880150771    9.51111901573036    2.96434148048325
H        -1.34818988840018    9.40995473751175    1.18255665139822
H        -0.34365390344979   12.45657792436777    2.96488195031813
H        -2.02517355483122   13.03574088159626    3.17027641142781
H        -1.48962293349110   11.59022891678043    4.01827883033848
H        -3.94313560542574    8.17269811631122    2.43638812091577
H        -3.66004676629546    5.74216488309673    2.00447777559260
H        -5.46280110711750    4.46950054346738    0.90103597043760
H        -7.54132314321392    5.60627126288165    0.22808104437983
H        -7.84396708793068    8.00316654716318    0.66803124926769

