65
CSD_code = ZELDOL | q = 0 | S = 0 | Stoichiometry = C25H34Cl2OSSiTi | MND = 8
Ti       22.25318117227140    0.35650925863468    9.64197844160214
Cl       21.63057604083614   -1.53222869930652   10.54776679562335
Cl       24.38074422906546   -0.13957882693041    9.55570631515461
S        23.82551620512105    0.90848871301691    6.40866818519910
Si       22.46507566327784    3.60126158132986    8.81277587411392
O        22.24068069881886    1.47132146605897   10.87532234103976
C        21.72468144506870    1.98577654901214    8.18450871184736
C        20.51798904813022    1.33904295562607    8.62337227105400
C        20.49487136706670   -0.00705943782204    8.16824135686234
C        21.69351267007110   -0.21890376492826    7.42422388552525
C        22.42369491607797    1.00324861086831    7.42942521919853
C        19.39239167381268    2.00699899255911    9.35932967425874
H        18.56770941983789    2.21218900513571    8.67258273040598
H        19.71977678958747    2.95105798275178    9.79357218284634
H        19.01279217706430    1.36437947694819   10.15726412421307
C        19.34485907041831   -0.96021748778796    8.29716946793589
H        18.54248703919860   -0.67246976704572    7.61288228618924
H        18.94535059363985   -0.95985935608503    9.31250924732212
H        19.66066963376723   -1.97303558401486    8.05375381153479
C        22.33031163766855   -1.22084002335955    6.63056804993349
H        21.95512897449627   -2.22359377016070    6.50532988194801
C        23.46575172936722   -0.77550843263701    6.03962419997439
C        22.13800147345141    3.79938445548334   10.67853703133565
C        22.10600653428428    2.64454040814574   11.47959547567379
C        21.91958631107682    2.72881616356172   12.87581639169135
C        21.78998285947040    3.99367907637974   13.42560049235118
H        21.65578270838470    4.10472385449630   14.48926088003581
C        21.82305399246863    5.15279403585482   12.65629971315308
C        21.98965662665487    5.03757617350517   11.28694082884165
H        22.01058086320456    5.92473594337113   10.67179554866504
C        21.69313196937824    6.49251334488480   13.31616936961702
H        20.85337220423759    6.50065367779172   14.00857983421231
H        21.54712867812973    7.27581450464963   12.57716558873835
H        22.59486892587135    6.72025205932112   13.88440647497934
C        21.83468287165779    1.45489586584094   13.70721394764019
C        21.69041310261408    1.74467689272187   15.20532111051857
H        20.77636133454927    2.29518314002488   15.41510789872259
H        22.54243590105391    2.30719119020795   15.57963057799340
H        21.64439651595937    0.80321427684709   15.74817529057497
C        20.59605907854366    0.66429667387939   13.25499040196568
H        19.69722410524904    1.26196459040118   13.40128453939307
H        20.50536668915563   -0.24888398340172   13.83911028316925
H        20.66669910651620    0.38663577030795   12.20007319610258
C        23.10517530105334    0.61064109294576   13.51473001251011
H        23.06218925252873   -0.26759598197438   14.15581655641615
H        23.98534392128546    1.19282726407811   13.78314032657545
H        23.21699921928903    0.26803188047778   12.48182923557710
C        21.70063660461161    5.06576202334602    7.84510967325033
H        20.64616610967560    5.18848391042618    8.09422141781283
H        22.19769128681238    5.98851321480083    8.13880330803268
C        21.83902368631983    4.88573464861758    6.33743266035682
H        21.39038334745643    5.72161923866664    5.80402657520401
H        21.34814843539367    3.97063637095208    6.01550858012698
H        22.88635572708058    4.82423192034193    6.05532638382930
C        24.36855846612782    3.49141545940148    8.59440421574547
H        24.73442903916371    2.59382317089661    9.10527529717861
H        24.61770998811042    3.37022871156259    7.53891547762266
C        25.10762256189619    4.71145707386239    9.13919900326316
H        24.89248066733490    4.85018663467546   10.19620268403499
H        24.80475178952769    5.61117670978445    8.60882527974001
H        26.18262752559195    4.59257149324136    9.02095221298137
C        24.40907266888168   -1.53282702934687    5.17600513568080
H        24.00679090589936   -2.51853774232553    4.95436970466122
H        25.36807460312755   -1.65147894180704    5.68118954506113
H        24.58732484625434   -1.00163867875587    4.24176678517535

