65
CSD_code = ZELDUR | q = 0 | S = 0 | Stoichiometry = C26H32Cl2OS2SiTi | MND = 8
Ti        5.02487112485146    2.28716700046221   22.18708380353756
Cl        6.42897875714998    2.73251351724158   23.79994821128405
Cl        6.48114464829053    2.59506131099275   20.59320960901531
S         5.24855295934947   -0.48314903766274   19.89353300484520
S         2.18903730144877    1.76404231561907   24.14492516197893
Si        2.24236570183913    1.97182830230416   20.29742683887228
O         4.04060449776617    3.61286092871425   22.00647662025476
C         3.28801052018024    0.99275106685202   21.52243181145213
C         3.25322270506780    1.08909685248976   22.94429164518325
C         4.39279599900528    0.47268923625161   23.54707168032963
C         5.18370287058423   -0.05170419817145   22.47554811009807
C         4.48453731729667    0.25217480709223   21.26813814090147
C         3.26301110110074    1.20653611742875   25.43162114886218
C         4.35449605555195    0.54939179339812   24.96949988430033
H         5.11551967180969    0.14233463416245   25.61431161097399
C         6.35174982821360   -0.83128145284401   22.23578823903160
H         7.02934101101087   -1.15424004442422   23.00918569806397
C         6.52318122962057   -1.12759590379303   20.92273710989119
C         1.88868598878513    3.66991990493674   21.08473893402873
C         2.89787505556374    4.27277112166210   21.85828112739608
C         2.69542323199091    5.52379228077128   22.47724361268340
C         1.47821307214225    6.15081557272757   22.26362274487409
H         1.28727138248085    7.11351449967066   22.70885202026867
C         0.46897440152615    5.58433891677429   21.49294866670212
C         0.68529158512911    4.34048199531544   20.92413800630458
H        -0.09610685094625    3.87915216030272   20.33996041192045
C        -0.81866248585168    6.31911583840639   21.27303962633166
H        -1.08455505445681    6.90794955978678   22.14788543317847
H        -1.62696509189907    5.62586532393597   21.05397759841805
H        -0.71896700814373    7.00048598071167   20.42735226540131
C         3.77186765562820    6.10489952979822   23.38556652265666
C         3.91962864096859    5.17154082417292   24.59852343643726
H         2.97284725832720    5.10315970325977   25.13277573346464
H         4.67763958008769    5.55877903258017   25.27607414082629
H         4.22022414136995    4.16593784267404   24.29213518318623
C         3.40601309064959    7.50024413257797   23.90410640085333
H         2.50068962726649    7.47346531849770   24.50572962135240
H         3.27153849336515    8.20068964521621   23.08318704781684
H         4.21257349507004    7.86992047892153   24.53336137658010
C         5.10772931028599    6.22434359991285   22.63337347072032
H         4.98019198484722    6.83445887801146   21.74037507677277
H         5.50243316680897    5.24834104870570   22.33450732056250
H         5.84679670099720    6.70046577273568   23.27470136405600
C         0.62136970911387    0.99733214510146   19.99446948237127
H         0.83410306509359   -0.07191433375789   20.02634835958946
H        -0.08580721478898    1.19506962491935   20.80090806251131
C        -0.03944414370011    1.31638517862808   18.65983767855385
H        -0.28282581293493    2.37281342116164   18.58650334592595
H        -0.95988906209655    0.74765452789993   18.54010692632158
H         0.62389806122248    1.06408288475650   17.83755534820774
C         3.32123551337596    2.23957810217634   18.73206022948759
H         4.36127054756328    2.39903493322434   19.03730212284461
H         3.31278799899750    1.33992750480911   18.11447563734886
C         2.88279959354198    3.43360445006551   17.88550205380706
H         2.92425836862805    4.34949447098776   18.47096293685071
H         1.86539153272979    3.30583517499807   17.52545770850224
H         3.53782861974114    3.54872019506045   17.02434878040095
C         7.63695460113498   -1.88204319503533   20.29075769559386
H         8.29171384601053   -2.29435318080657   21.05469998871912
H         8.22049717817135   -1.22292196806906   19.64745114203298
H         7.25148873098123   -2.69388828805518   19.67510916621196
C         2.91038570277399    1.52159448883384   26.84082703717174
H         3.00473861462581    2.59277657822539   27.02256858430170
H         3.57666779767980    0.99417428237791   27.51906171838755
H         1.88160207999918    1.23451679432458   27.05380052319315

