37
CSD_code = ZELFON | q = 1 | S = 0 | Stoichiometry = C15H16ClN4Pd(1+) | MND = 4
Pd        8.36164880225711    8.81319655641255    6.44603728868838
Cl        6.37365260914935    9.60148926162966    5.75486752085736
N        10.26048728237275    7.00914498166163    7.73137106994907
N        11.25344199737187    8.71482372232455    6.82503154863352
N         9.32313621606071    9.54726702170222    4.81032590903086
N         7.55726091355632    8.01327365114174    8.13454583974090
C        10.09255274397420    8.12645701043256    7.04790510940233
C        11.66710107472256    6.74505159283410    8.02253253917930
H        11.98417776154240    5.80877832097185    7.55501107322564
H        11.82887700714402    6.67038773245199    9.10106570588147
C        12.36986454824237    7.97328362855995    7.40532564621099
H        12.88015998501790    8.57969287676221    8.15869762195342
H        13.09074111819255    7.69624079973857    6.63161464161300
C        11.33122759921100   10.00127153023373    6.16979725550876
H        12.37927532280603   10.25484283059251    6.00655419615336
H        10.87985336650119   10.77281819871454    6.81659938252568
C        10.59032561002492    9.99350418543526    4.84297425020142
C        11.22387364993966   10.45104155897307    3.69680340365214
H        12.23830216643285   10.81321251323932    3.75270740876068
C        10.54694902589531   10.44644516051838    2.48632347072202
H        11.02546595687029   10.80788816508591    1.58997315478020
C         9.25195860209799    9.95859478642470    2.45971812646997
H         8.68511628100551    9.92230123752569    1.54401776747144
C         8.67947370675725    9.51553455676110    3.64075909877762
H         7.66058106642537    9.14248733776069    3.65480859107145
C         9.14892881656292    6.13148846543561    8.02211253893430
H         9.49324450773978    5.32274394704976    8.66764589713523
H         8.76884558943849    5.69380876911874    7.08320784724931
C         8.01185779320642    6.88056998744363    8.69692754211810
C         7.45798282628847    6.38358803799813    9.86767326568465
H         7.83519638810920    5.46688290972170   10.29277293148486
C         6.41720228038214    7.06459925472078   10.48129335826618
H         5.97178618048529    6.68334077195677   11.38645503413811
C         5.97619775231013    8.24478431280820    9.90825811035028
H         5.17839133304003    8.81876463146658   10.35006113291649
C         6.57507731278383    8.68583443824600    8.73958835959525
H         6.24088480608230    9.59916525614463    8.25833636166602

