72
CSD_code = ZELGII | q = 1 | S = 0 | Stoichiometry = C29H41OTi(1+) | MND = 12
Ti        0.71859176079175    5.33082306032513    8.48095676687449
O         0.97511860018472    3.74215804348885    9.86464860497311
C         1.25691653289157    7.57169415787246    8.37759934623394
C         2.30892625311136    6.84457945470165    7.75036338018927
C         2.89673648262339    5.98353926868655    8.73092163960191
C         2.22193548497728    6.21365939179535    9.97067794028791
C         1.17528858006197    7.15137571284515    9.73746525446541
C         0.61954908678630    8.80378471352162    7.81318014914304
C         2.94248145514976    7.27138804522939    6.46146486392974
C         4.19773096529499    5.25114705345163    8.55963788427096
C         2.74255682554227    5.85750949441753   11.33310991954629
C         0.30894052397927    7.79034381650473   10.78195199917897
C         1.95887019969176    2.69989259908667   10.02467725001726
C         1.54636329694998    1.89458139149065   11.25548620439951
C         0.81320328361819    2.93860808199081   12.09212694141550
C         0.09853939628170    3.73706493789045   11.00679617619268
C        -1.14002204539689    4.09625730607151    8.13011774809270
C        -1.72650404590740    5.19185342141621    8.76717700118921
C        -1.48980528792184    6.34357545170313    7.98208236730215
C        -0.72402497019197    5.98136286986146    6.87316305522004
C        -0.45984711246346    4.56388518086594    6.94756330668746
C         0.78236414029654    4.00118655325299    6.52195564178459
C         1.36674699442919    4.48723228771729    5.20850861317387
C         0.49828181916549    3.89432333379650    4.08152633665166
C         0.56059835196092    2.36997153147908    4.13756937534817
C         0.05190425913133    1.88701796928818    5.49277431081220
C         0.92092294731741    2.49019687501653    6.61368354036012
C         2.80979768051173    4.01799961971394    5.01012310325704
C         2.87296112790050    2.49421596470526    5.05095982804421
C         2.00308307682030    1.90658002686387    3.94238822924583
C         2.36815753950412    2.03216152929384    6.41567260510820
H        -0.69673193190279    7.98066288338096   10.40685128839927
H         0.73963186524783    8.74952602500426   11.07704378702326
H         1.97995452586785    2.08562012103061    9.12247457449166
H         0.86680255444402    1.08923437539173   10.97540016348170
H         1.52244115794584    3.55950171562636   12.63863685825734
H        -0.11367593693165    4.77400646010602   11.29105219637324
H         0.86619702970359    4.24734435841519    3.11638156421283
H        -0.98831496365367    2.19015267727000    5.63319010044461
H         3.44949415830448    4.42443885423810    5.79561086142242
H         2.37234742908898    2.23427007244281    2.96930727585886
H         2.41762648568333    0.94321448672795    6.48363906099378
H         1.33181930211754    9.62832402196794    7.89729712100499
H        -0.27516397897211    9.08528183744529    8.36259345353219
H         0.36770865836358    8.69822920468170    6.75963432593480
H         2.20198221089626    7.56224927228034    5.71873041124412
H         3.58404712642114    6.50424651064457    6.04022359645098
H         3.55925835990683    8.15146024863287    6.66300379159529
H         4.91294268979994    5.89395349668216    8.04606644920647
H         4.08685054021846    4.33831555594264    7.97145049828981
H         4.62471779827161    4.98862236563306    9.52522458539868
H         3.45989779435605    6.62650694369972   11.63181273718576
H         3.26316987788795    4.90298196258805   11.35582394968033
H         1.95333623551682    5.84791154374725   12.08250735440117
H         0.23100900421463    7.17655577743164   11.67858989063054
H         2.94351727614522    3.16188322636720   10.16240796464834
H         2.40285318817399    1.46441123803546   11.76706989845969
H         0.11522157388506    2.49927705899822   12.79967948586784
H        -0.84114003785556    3.23452852406054   10.73683265755559
H        -1.27706206930772    3.05812869784651    8.40507798417368
H        -2.37683525600345    5.15611936132595    9.63144215912767
H        -1.93058330796940    7.31409824281551    8.15800964515985
H        -0.49294597173755    6.61857549603834    6.03039838591265
H         1.32798711814253    5.57842939524427    5.13997989597851
H        -0.53424554251816    4.23202880043248    4.19728037874882
H        -0.06868441730560    1.95230955626788    3.34555570932413
H         0.09924941688278    0.79717983260046    5.54301763045529
H         0.54478744233532    2.11325862437502    7.57273948651912
H         3.17818038679332    4.38205667986246    4.04943114674963
H         3.90876094622919    2.16646422069966    4.91571025934433
H         2.05212767492725    0.81652113680822    3.96772917015278
H         3.01020038328872    2.44984999286801    7.19816286330671

