79
CSD_code = ZELJAD | q = 0 | S = 0 | Stoichiometry = C36H36BrN2O2PRu | MND = 6
C         3.41527279613356    2.74873184196869    7.61645481184510
C         4.59630358953845    3.16141423885458    5.26126787460791
C         2.24168313053920    1.66531715913871    5.19206905432396
C         1.57930348852565   -0.38097069920319    4.62766396853780
H         1.47309430872555   -1.44195241383020    4.72535370219989
C         1.13267713115614    0.47605946329741    3.67725780551258
H         0.55982830722421    0.29679109463412    2.79081260171005
C         1.27336578517919    2.99394460700884    3.42498973399178
H         0.25653826174921    3.29111416532613    3.71179891576726
H         1.29921496444039    2.85967668795933    2.33869688677866
C         2.29596265423421    4.03801421370490    3.92166417486536
H         1.74363521292227    4.99148872480195    3.95909682894134
C         3.38746573232123    4.24455284160527    2.85500925083857
H         3.81002802079251    3.27819007441679    2.55795158474355
H         4.20063503612567    4.84541786224727    3.27439390217401
C         2.88097427411964    4.97804135416669    1.61124407264686
H         2.09140028501178    4.42457335294925    1.10756927245045
H         3.69385455633780    5.12459557962980    0.90227699175239
H         2.48770253408725    5.95448699082552    1.88804352162167
C         2.84519686849793   -0.14725703627754    6.74197556548957
C         4.17199886194192   -0.57165284091283    6.71806214763914
C         4.73032896769847   -1.04834085475912    7.89459629008411
H         5.76141936554123   -1.37142113347391    7.89255357405324
C         3.99543989104775   -1.11110441486413    9.06926647610112
C         2.66845341677048   -0.70206029738385    9.05415507395721
H         2.08830122413415   -0.75379723520624    9.96408732546562
C         2.07087012789065   -0.21754178084883    7.90159181811595
C         4.96039317073441   -0.52287551578679    5.44459764981543
H         4.52723742463679   -1.19349780099461    4.70169088401025
H         5.99037519360345   -0.82056565768404    5.62015421159251
H         4.95561766124435    0.48273959540251    5.02629596672715
C         4.61494090218661   -1.60080768296341   10.34175284366166
H         3.96515462969748   -2.32376216688481   10.83140837464699
H         4.76066238853598   -0.76609492412510   11.02694747145538
H         5.58024702476087   -2.06393226196420   10.15448552943434
C         0.64260111186181    0.22712252282884    7.89091614883274
H         0.17987605386439    0.05474531122453    8.85825352735138
H         0.07419902846728   -0.30873899372431    7.13116148752479
H         0.56803330813716    1.29101695017097    7.66339844433520
C         2.46495615192806    6.38254527385496    8.01943155650009
C         2.10708143569394    7.72426020169013    8.10151821096034
H         2.26145524017721    8.38608211431724    7.26121935580132
C         1.52815878428892    8.21667500785891    9.25694355951859
H         1.24439375822921    9.25790942633782    9.30788752155804
C         1.30882111092558    7.38379016965340   10.34076077149046
H         0.85124330334024    7.77291604220832   11.23815499654193
C         1.67295260405485    6.05007557281199   10.26854017295112
H         1.50153380508699    5.39307169071825   11.10805160558526
C         2.25066535780503    5.55420131447530    9.11553095948084
H         2.52143140716838    4.50775773652007    9.05968996125508
C         2.96786040082571    6.90282251536604    5.26551745630558
C         1.64134150005730    7.26625287884828    5.03504684420346
H         0.85895522123920    6.87714666481034    5.67484897210718
C         1.32851943039041    8.11510096219081    3.98962499849143
H         0.30019519296362    8.39724551104394    3.81752613015773
C         2.33008553627193    8.59216941080954    3.15863394251288
H         2.08425650416382    9.25411937335928    2.34111530008646
C         3.64521325906428    8.20855379637142    3.36629622238604
H         4.42369166176727    8.56596658246588    2.70797403278609
C         3.96519369768212    7.35870308297811    4.40974690596540
H         4.99060340313277    7.05006773187067    4.56524243832789
C         5.01785908249842    6.15072999397886    7.09229916881676
C         5.93199080597080    5.16810339909777    7.44997140711164
H         5.65877549059576    4.12330570076644    7.36591964652080
C         7.18986575963595    5.51501543414291    7.91211797774337
H         7.89369902766577    4.74176285913867    8.18245476489907
C         7.54211190500019    6.84822791661866    8.02672736636455
H         8.52418110478324    7.12034593531741    8.38407853009473
C         6.62962072779010    7.83483041429700    7.68652795222523
H         6.89900756606357    8.87667514799544    7.78148070506927
C         5.37272287277348    7.49082749306461    7.22842673843908
H         4.66459060176020    8.26457330720361    6.96818828351710
N         2.25752697772230    0.36848367335919    5.55364371583885
N         1.55372273745730    1.72020677272090    4.04533280824161
Ru        2.92095050736948    3.44905836009827    5.93906749838568
O         3.87772090725356    2.26083581426320    8.54883623569206
O         5.64844398495454    2.95132669902675    4.84625706836528
P         3.32832361417430    5.68236097961237    6.56313370749781
Br        0.53409086986228    3.93003611756773    6.62326874454391

