53
CSD_code = ZELJIJ | q = 0 | S = 0 | Stoichiometry = C14H30N2NiO2S4 | MND = 6
Ni        7.04928420232307    0.42262750017135   14.33266653766107
S         5.38195877327783    0.90272915391848   12.54637195186199
S         7.47066616420239    2.49567682059618   13.72063451860063
S         6.64899763568989   -1.74201489675453   14.34845496560537
S         8.83696965020072   -0.55121068477090   12.91042101455844
N         5.53059850381096    0.89993084393720   16.00499006259182
N         8.43042376846895    0.49516106071985   16.18451758458474
O         6.21159157313807    3.06952205125028   11.44737858196767
O         8.03159643665734   -2.93893238610084   12.41512432041279
C         6.36493356097992    2.25284826801986   12.46961636483440
C         7.03066231963369    4.23968039010672   11.33911059352772
C         7.12602160105823    4.57108290637858    9.85701631182884
C         6.41146329387430    5.37669700585414   12.14558321266845
C         7.83379024287673   -1.86665894761471   13.15388467543082
C         7.18710669152083   -4.08455469640606   12.57876949089934
C         7.72149226454528   -4.96059923182259   13.70709623024829
C         7.17327724327320   -4.81205658058410   11.24226273664891
C         6.21031991621652    0.62872403605206   17.27829547788408
C         7.65643082225867    1.12975761177410   17.25917109399382
C         5.07463900413886    2.29037582827163   15.96972821245624
C         4.34213632909487    0.05012331892670   15.89294913599065
C         9.63311790731194    1.28678921048293   15.91303641911440
C         8.87235819336519   -0.83475844017318   16.60695754402302
H         8.02524876282264    4.00158429111531   11.74233702501911
H         7.54656119702104    3.73015525621524    9.31193140311220
H         6.13573686020197    4.78142139738418    9.46154721054706
H         7.76164425602471    5.44006092974606    9.71486217788144
H         6.34810743343992    5.10209398091958   13.19618234074665
H         7.02529162843285    6.26776155817229   12.05377853735961
H         5.41152295087003    5.59064951058128   11.77546312171263
H         6.17702002730087   -3.73308894493414   12.83300334139067
H         7.72854111291811   -4.40626981964324   14.64296949095944
H         7.08785135044837   -5.83477473747970   13.82357099166400
H         8.73530267228005   -5.28061304629256   13.47841280163955
H         6.80862824845438   -4.15111177240306   10.46042804492842
H         8.18001062427433   -5.13160207432559   10.98588170656289
H         6.52501714027443   -5.68115584094216   11.30328713532160
H         6.20848149649934   -0.45117792373470   17.43800728225221
H         5.67365607868026    1.10205082411797   18.11494861840313
H         7.65915519829300    2.20746446067264   17.08543272615360
H         8.11952248550855    0.93738028762049   18.23926155250618
H         4.36792389379427    2.49148370115642   16.78737363874532
H         5.91610056620487    2.97376115379304   16.05372760892779
H         4.57369299541430    2.48105107923726   15.02201451927226
H         3.62097682247430    0.27525948558455   16.69052530263994
H         3.87000357627971    0.21991880011249   14.92644502960718
H         4.62222103090749   -0.99961912495025   15.95437548145574
H        10.28550161947213    1.32712733610385   16.79608072855570
H        10.17953479655174    0.83599002354747   15.08598370042558
H         9.36029659202919    2.30073038650021   15.62731452797849
H         9.51421781644223   -0.76992655176699   17.49705301041147
H         8.01943535192400   -1.47036720660771   16.83189824383499
H         9.43975931684690   -1.29807756173232   15.80146566258875

