77
CSD_code = ZELJEH | q = 0 | S = 0 | Stoichiometry = C36H35N2O2PRu | MND = 6
C         8.54082737966333    2.63162591088850   -2.05764199342810
C         6.21365093574622    4.27011634910556   -3.41905526352140
C         5.75320357229209    1.82963565247152   -2.28099780445217
C         5.02090558213514   -0.23290718889753   -2.76379376231539
H         5.10027688667079   -1.26005455692776   -3.05630264672558
C         3.94355019453063    0.52045512006047   -2.44822501637976
H         2.90349669257316    0.26745531002357   -2.41031512178472
C         3.58211516272315    2.90551025315776   -1.81303893996329
H         2.53689047645279    2.58388251701715   -1.83078711386013
H         3.72383077630156    3.68890732236054   -2.56878260460746
C         3.95172867150799    3.45999056320588   -0.43125286393998
H         3.76694084634310    2.67433803363620    0.31023182713778
H         3.26693392314726    4.28477016686168   -0.21798077230075
C         5.39520757285000    3.94636530615686   -0.31992633169375
H         5.44207645243206    4.96476440606860    0.08310454358327
C         6.38963759539879    3.05360227934266    0.21207934415301
H         7.05243748432272    3.44754982863557    0.98276148414282
H         6.04906188461474    2.04754646473958    0.47155384252642
C         7.44102617543544    0.14940608508128   -2.95110342176254
C         7.97018472116766    0.39198691155054   -4.21971999226300
C         9.25072733790597   -0.05778289915129   -4.49422336093712
H         9.67955339613048    0.13505229729081   -5.46707767276764
C        10.00003929328848   -0.73882164970572   -3.54396838965560
C         9.44261088815161   -0.97707922680111   -2.29693123548068
H        10.01854431536565   -1.50147400274820   -1.54787557410870
C         8.16504994042264   -0.54132540485743   -1.98073079069565
C         7.17125345243774    1.14252380173931   -5.23924104146487
H         6.20419962281000    0.66768814646428   -5.40462221882206
H         7.70369477902781    1.19265235058137   -6.18481975807907
H         6.98998189753209    2.15955867194305   -4.88414272278444
C        11.39392909836159   -1.18343121923189   -3.86390128942072
H        11.75764025184623   -1.89366743111551   -3.12573105553254
H        12.06090544658124   -0.32157721217437   -3.86888621180799
H        11.43531407625800   -1.64398195333938   -4.84923436681602
C         7.58087250166139   -0.76447289383804   -0.61975454211408
H         8.26490538084738   -1.33358048890266    0.00385397886465
H         6.63419505478261   -1.30108491323743   -0.68108735549979
H         7.39245467720001    0.19779967963585   -0.14270316457914
C         8.55190436787428    5.61227550804247    0.40870519889945
C         7.98645147779426    6.55712020637831    1.25609264031930
H         7.25637480410791    7.25781105424577    0.87460546414048
C         8.35875341443228    6.60289619735303    2.58915864664774
H         7.91785813844371    7.34194562989887    3.24280484569068
C         9.28786470236010    5.70533908914852    3.08608555487519
H         9.57579564153641    5.74537381423262    4.12653032849121
C         9.84050753383870    4.74660827290070    2.24972686908098
H        10.55668064281463    4.03704724100600    2.63865906459069
C         9.46726932941593    4.69342962077913    0.92131728957789
H         9.87690573811048    3.93669704841720    0.26272529410202
C         9.63945887500457    5.60914935354777   -2.20368671207880
C        10.80364474922270    6.08742031477547   -1.61207537598242
H        10.81893805075459    6.33779414176673   -0.55998905363976
C        11.95581427215778    6.23223467228972   -2.36546099229253
H        12.85800289274056    6.59789920535464   -1.89582779900036
C        11.95682660295251    5.91080245599225   -3.71176948773644
H        12.85996337654643    6.02309547525396   -4.29380448622926
C        10.79825827127312    5.44074748838867   -4.30890280923206
H        10.79424235022546    5.18669502330995   -5.35888354297709
C         9.64812199631234    5.28997471069426   -3.55858746106512
H         8.74088394911863    4.90669168069725   -4.01296456257721
C         7.33371114213565    7.05540487618954   -1.67186286863658
C         8.13125730083437    8.19565234068552   -1.61157723695060
H         9.17984562797167    8.10622954390071   -1.36447093930575
C         7.58577677421811    9.43925793384535   -1.86772186488104
H         8.21112616071428   10.31935602813090   -1.82204746739033
C         6.24159818216808    9.55987174992299   -2.18440922355455
H         5.81949631470289   10.53345996564749   -2.38691153875039
C         5.44307199546851    8.43075199233746   -2.24193894806636
H         4.39471827952886    8.52066320072891   -2.48788959216723
C         5.98758440360793    7.18409611971749   -1.98783101340834
H         5.36977118047338    6.29622708955248   -2.03486174881557
N         6.11899063999211    0.58302763981342   -2.65795682859766
N         4.40684147253657    1.77565085701496   -2.15994547768960
O         9.64515337775797    2.31289844716528   -2.20124656237468
O         5.82754011406589    4.66225448440746   -4.44406441098753
P         8.04171431962235    5.39593496189128   -1.33119049618294
Ru        6.87252714033635    3.48787217753000   -1.85516331679656

