58
CSD_code = ZELJUX | q = 0 | S = 0 | Stoichiometry = C24H24Cl2N3O2PPdS | MND = 4
Pd        8.54405888146729    9.21379985993889    4.06827013048613
P         7.20813474890980    7.96806161759833    2.76825709192698
Cl        9.65853335759782   10.80058344079426    5.26042878110676
Cl       10.37943382605092    8.68396817570960    2.92061398128080
S         4.67127460568048   13.00184407108250    6.97106452669801
N         6.86924853894195    9.64903406640339    4.98952062790624
N         6.74361819205313   10.26062040224178    6.10705245829740
N         5.45711492278192   10.48639504629684    6.30857290004236
O         5.19904758246756    6.06338859960764    1.69948010145986
O         7.68659110307977   10.38618943028144    1.69879820307095
C         5.53289699255370    8.72793347091541    3.11746071262421
H         5.30489931186699    9.43507640179106    2.31461957276017
H         4.74549476530136    7.97325822570086    3.14873600048635
C         4.73083920513362    9.99205082439326    5.27624730968903
H         3.66601973477593   10.07777686890512    5.22949163532181
C         5.65253273488579    9.44011600007665    4.41725028009740
C         5.02612838569396   11.25650067884582    7.42851030782320
H         5.81949750830146   11.25025057072537    8.17508309584727
H         4.09547647104672   10.85408506542050    7.82969069264215
C         6.23466417883418   13.80998581217925    7.28593970422551
C         7.44650798985129   13.24513900237763    6.92450932094795
H         7.51874168685233   12.27949109057606    6.44989485575979
C         8.61766723151079   13.93541323252282    7.18748026131173
H         9.55235005701982   13.47819413231388    6.90265008350384
C         8.57814089984087   15.18299268715413    7.78548130894824
H         9.49443658485559   15.71862859422404    7.98339273707051
C         7.35907719871007   15.74711215624296    8.12753623082582
H         7.32024559798973   16.72098381446936    8.59290343748334
C         6.18320200145556   15.06198832304579    7.88259534673956
H         5.22738302727034   15.48806991168500    8.14839194438286
C         7.02403060070057    6.21017206811878    3.13736560633815
C         6.03192804649502    5.41113881471963    2.55569972433834
C         5.96382018211055    4.06592158307109    2.89115215382151
H         5.21549576501788    3.42287907667972    2.45431126141068
C         6.86721962123206    3.53772371095863    3.80203425442737
H         6.80294598416973    2.48920499125470    4.05202752865019
C         7.83759389086364    4.32944001368870    4.39166522840013
H         8.52956954418048    3.90368473347007    5.10108522420026
C         7.91301839533801    5.67028446970098    4.05709820089922
H         8.66849737086131    6.32568725391235    4.49456850174310
C         7.47843068284762    8.17503072969147    0.99665968655528
C         7.82410592837382    9.49969772833239    0.67320295344981
C         8.25865380424186    9.81085859060576   -0.60572154379950
H         8.54400063724264   10.81964523075924   -0.86030252646284
C         8.33934834640053    8.80506963722228   -1.55575340881392
H         8.67667105425325    9.04749468353895   -2.55234310368410
C         8.01467487829760    7.49731648748173   -1.23764001162352
H         8.10607768169176    6.72243934994333   -1.98350143012192
C         4.25383611852439    5.31632132437154    0.97062225640687
H         3.76349913257233    6.02713809359580    0.30765745254247
H         3.50801978716481    4.86030611777101    1.62976519320823
H         4.73487260341555    4.53705513799671    0.37216472056318
C         7.60326074608415    7.17600998447115    0.04470500781334
H         7.39876135696203    6.15078245881043    0.31152788741052
C         8.53158625459875   11.53522863375776    1.71630938301558
H         8.54727918240932   11.87920505774086    2.75789401370146
H         8.13303881396872   12.32050707670829    1.06646717020158
H         9.54750626718421   11.26712538809926    1.41385497466832

