48
CSD_code = ZELKAE | q = 0 | S = 0 | Stoichiometry = C16H24Cl2N3PPdS | MND = 4
Pd       -1.74872995557740    6.71892212982565    6.05957774158811
Cl       -3.89223641165944    6.12886565844399    6.32000673611873
Cl       -1.18721034394762    4.69859325707087    5.18769533341517
P        -1.96062961129556    8.41055478364837    7.56615688851974
S         0.92848407602154    9.41376576012009    2.15557674137394
N         0.07830368785256    7.45077102605683    5.80855982812544
N         0.70919045702980    7.27130189595162    4.70929664957829
N         1.50899050714836    8.31047825408391    4.51943010086752
C         1.37246564798588    9.19496489038611    5.54032636406618
H         1.91529405505403   10.11536872390013    5.58087445856336
C         0.44734343233518    8.62915338102638    6.38271565420065
C        -0.20660199181615    9.07585266823470    7.63865090457848
H        -0.17437949736308   10.16251169219286    7.73640216852542
H         0.30372326790831    8.63466066055408    8.50041605626514
C         2.11185927248288    8.49718041151156    3.24871493758684
H         2.31239457318920    7.51989757478579    2.81047988654522
H         3.01284710640300    9.10427440750662    3.31246202651845
C        -0.49301461337315    8.36682284786230    2.45811572351149
C        -1.51863689851861    8.84122084996108    3.26370739027440
H        -1.48373331431865    9.85885733965135    3.62887420688126
C        -2.57752284341345    7.99869258387039    3.58181107086765
H        -3.41989415861611    8.36622427368764    4.16257400291749
C        -2.60604982496429    6.69881752845715    3.07669602218780
H        -3.44016502710401    6.04999038221363    3.31027144682710
C        -1.58394172857400    6.24968396347922    2.25314330697980
H        -1.60542867739830    5.24252918454954    1.86804195577899
C        -0.52528869526473    7.08271313721509    1.93853475089554
H         0.27642625949234    6.73782094168850    1.30297934170415
C        -3.00581570174723    9.94202455941296    7.68849144953808
H        -2.63638844689283   10.54721368716522    8.52562359518827
C        -4.45605218633068    9.52414749005816    7.91679000986814
H        -5.12450694492546   10.36344001618086    7.73398662060155
H        -4.61433815004704    9.18046510804377    8.93613558476814
H        -4.72097115077991    8.71191367397129    7.23827475552338
C        -2.86701553163905   10.73231699602578    6.39045191756878
H        -3.28632178364333   10.15919805345403    5.56610188376510
H        -1.82321311528463   10.95214840099125    6.16530390400093
H        -3.40614666100948   11.67542425544742    6.46097114246218
C        -2.18446224021123    7.54352888964546    9.19633884011971
H        -3.23682307999799    7.22889952700104    9.18628855609099
C        -1.91954705876698    8.41086431829417   10.42410306191681
H        -2.08520155981096    7.82273096071305   11.32503774003664
H        -2.58598420911383    9.26916437150196   10.45926679220374
H        -0.89193427153590    8.77006115655202   10.44556984134523
C        -1.31951775065991    6.27813304481165    9.19964790238022
H        -0.25461977122444    6.51935173405455    9.18580335525765
H        -1.55234449378067    5.64267410811953    8.32682797998537
H        -1.51985464231040    5.69430944064280   10.09649337231400

