73
CSD_code = ZELKIM | q = 0 | S = 0 | Stoichiometry = C34H35ClP2Ru | MND = 8
Ru        1.51320468551970    1.18353743901810    3.45554578896277
Cl        1.71970114530983   -0.84644517001435    4.69386034271816
P         2.27257596928982    2.09799006055482    5.38086983593224
P         3.60434318729326    0.66076982146637    2.79145242129068
C         3.78746026365905    1.34921383120981    6.12202281760354
H         4.02918598921299    1.92120152729878    7.02426733656522
H         3.50207980199376    0.33453748332483    6.41396782914228
C         5.02649094617646    1.27015838588340    5.21564689638790
C         4.83230796115152    0.23263618837405    4.09836563757182
H         4.47433086733692   -0.70007540341746    4.54368737671775
H         5.79055601370084    0.04159791182375    3.60361593439990
C         1.03826768890084    1.88112934414381    6.70908070081848
C         0.94897776615479    0.72919292495007    7.48395085624903
H         1.66408224411457   -0.06864923692239    7.35935991016002
C        -0.08245606368021    0.58294602295389    8.39508644115121
H        -0.14225279977578   -0.31564192556859    8.99197148179044
C        -1.03992541190612    1.57251992723081    8.53759436450272
H        -1.84471061565824    1.45215636810740    9.24813159477022
C        -0.96924442171276    2.71429017214385    7.75563118281868
H        -1.71974168084870    3.48621071723240    7.85350964074238
C         0.05863716174387    2.86470617332599    6.84516452226432
H         0.11189349560440    3.75643673639060    6.23268681909827
C         2.58437821890821    3.88910104636916    5.59155472784182
C         2.86173207394315    4.42275521950955    6.84596819680904
H         2.88376699708603    3.77609240050041    7.71291995622027
C         3.08648070954732    5.77888713580264    6.98880289318527
H         3.30142111993695    6.18872122717772    7.96533519325617
C         3.03143223497942    6.61542735829349    5.88464413182084
H         3.20722303006951    7.67470263309216    6.00107706982876
C         2.74261763916197    6.09259886130809    4.63575469045761
H         2.69054064392496    6.74342800564449    3.77495911298621
C         2.51842919121152    4.73507148452646    4.49443006613362
H         2.28731961996870    4.30820727990582    3.52765583730434
C         4.56325577713172    1.73875280158279    1.66689275674723
C         5.78611333513373    1.33003636078755    1.14529516435320
H         6.18201630110157    0.35644516412635    1.40067860610834
C         6.48351512320874    2.15602661937023    0.28404341039560
H         7.43365746055010    1.83491965663148   -0.11793606474694
C         5.96482586041591    3.39173187903008   -0.07082720629584
H         6.51310350060930    4.03346383085669   -0.74474392309084
C         4.73983777668448    3.79696127243355    0.43110434177136
H         4.32788463565015    4.75438378596212    0.14643560184163
C         4.04398290226956    2.97042841383604    1.29465733225332
H         3.08067987054302    3.26545665658963    1.69120217870837
C         3.57322441865561   -0.85048575076747    1.76802048215620
C         3.59765677762102   -2.13152525101411    2.31096804902159
H         3.70172936035870   -2.27059943675195    3.37555772912658
C         3.44826725741201   -3.23657683105642    1.49148468910845
H         3.46836299435936   -4.22660962002782    1.92355252330381
C         3.26201424500711   -3.08057530563225    0.12849763850065
H         3.14233699381781   -3.94639800722804   -0.50641284249247
C         3.21619818842169   -1.80771920731779   -0.41714766052106
H         3.05902135825411   -1.67754628616165   -1.47867952616920
C         3.36499319532482   -0.70166628466881    0.39704260499088
H         3.32494558982686    0.29189051097443   -0.03129277787761
C         0.28602904661352    2.67930083214189    2.29700672027276
H         0.41463005639718    3.73189533891374    2.08110277969977
C        -0.52796941136216    2.14608129827423    3.34240705570905
H        -1.05586223166164    2.72624211273039    4.08816933066144
C        -0.66393778069421    0.76251643066269    3.12728155753199
H        -1.28320121150968    0.09010786149193    3.70671385099232
C         0.06501720260320    0.41629166540875    1.95555274435562
H         0.05174997350616   -0.54677915947330    1.46208327944532
C         0.62651075352978    1.60667526434265    1.43253392483481
H         1.13256292629258    1.69919706713566    0.47942630048961
C         6.20239254471597    0.79923528313770    6.08330304591516
H         7.10995037025382    0.72547251433454    5.48805936138984
H         5.99492039258868   -0.17654350385123    6.51659310921213
H         6.38470026170235    1.50321924530065    6.89229650531019
C         5.35022839267581    2.63778510131646    4.62495982106362
H         6.24421869568350    2.58797500721776    4.00603842251724
H         5.51219580527065    3.37000535919957    5.41380191817283
H         4.51653561871316    2.96981535852548    4.00670555774072

