24
CSD_code = ZELLAG | q = 0 | S = 0 | Stoichiometry = C8H10Cl2N2OZn | MND = 4
Zn        3.42234251821377    3.23949421561370    3.07728597902134
Cl        1.54513595054821    4.28095690405893    2.78424793654098
Cl        4.05944034238444    1.08891548715915    3.03291954921936
O         4.90570926731224    3.82289262830868    1.76516826689846
N         4.83534870975567    3.88191918342753    4.58514489375521
N         6.53649879005345    3.06765069065345    3.16148674689581
H         7.39587230072486    2.53453206352594    3.18279879735846
C         6.08618861161918    3.46058551410308    4.41633933805360
C         6.99575447228372    3.39950954270962    5.47422889458196
H         7.99683422447334    3.03414762822967    5.30779950491628
C         6.58430458091971    3.81187338642100    6.72551789976686
H         7.26329239979267    3.77426511074037    7.56362264592098
C         5.28986643270050    4.27809923386037    6.88482811548569
H         4.94033253329733    4.61710536799478    7.84633726768610
C         4.43111588418186    4.29281764558081    5.79244103919711
C         3.02451652919855    4.75758379503510    5.91806485702930
H         2.78578435996894    5.46553847095431    5.12621337377612
H         2.84947714764742    5.21747752917578    6.88666767366880
H         2.34460619023875    3.91225187145573    5.80181958455545
C         5.93781652239142    3.19793412044467    1.94677228875430
C         6.67207962670368    2.52392861568406    0.82541866875434
H         6.40679518588642    1.46686048595003    0.85304535996456
H         7.74997057509664    2.62270230831697    0.91956172354914
H         6.33801684460848    2.93385820059387   -0.12353040535072

