31
CSD_code = ZELLIN | q = 0 | S = 0 | Stoichiometry = C11H14AuClN2O2 | MND = 4
Au       -1.06865862227559   -4.78174157680768    4.43867595699200
Cl        0.38994114320127   -3.99036738308258    5.92899676398020
O        -3.67761381724671   -4.70122438463732    1.41016218778067
O        -1.31507191242103   -6.50954764968963    5.20728606114398
N        -1.15526304656390   -3.11608248711707    3.35510720661792
N        -2.33958418947162   -5.40134815446329    3.13518102686851
C        -2.08318808758155   -3.20897017232409    2.38665408140606
C        -2.34181980772364   -2.14408902393104    1.53823217417788
C        -1.63261390677945   -0.96540180228633    1.70069979772608
C        -0.67815104646807   -0.89036020186752    2.70652885943417
C        -0.46636445370552   -1.99086953037771    3.51706274154303
C        -2.80802154184353   -4.52665044771797    2.24147563601770
C        -2.71022945902531   -6.80305968576214    3.25642124394256
C        -2.52689317972272   -7.06781568621109    4.75718004963253
C        -1.78641492066386   -7.71060932318253    2.41623070820377
C        -2.39159988066892   -9.10896659984707    2.31859296833842
C        -1.56172938256551   -7.14964527569468    1.01358613323895
H        -3.09623256798029   -2.27588629630492    0.77765525030017
H        -1.81984588830082   -0.11943571054782    1.05680426703168
H        -0.10413162974515    0.00768461385535    2.86841723118628
H         0.25425541491052   -1.99921768495233    4.32426498498772
H        -3.74927977324644   -6.92807287868201    2.93032920040536
H        -3.37024678768315   -6.62869107688098    5.31014181179880
H        -2.47622218521782   -8.13543772865209    4.99066288558907
H        -0.82311459097468   -7.76642369275593    2.93623943949019
H        -2.56798054323519   -9.53612051067265    3.30217984442946
H        -3.33777292466313   -9.07146171533182    1.78287883686184
H        -1.71661441529925   -9.76821038587929    1.77841828314619
H        -1.00512795685130   -7.86674838140615    0.41455739216187
H        -2.51375425520293   -6.95122401416718    0.52692381626476
H        -0.99265578498526   -6.22220515262257    1.04505315930230

