50
CSD_code = ZELMEL | q = 0 | S = 0 | Stoichiometry = C22H23ClN3Rh | MND = 8
Rh        4.39692503070899    5.34008238287426   19.55055579139061
Cl        6.29861273547844    6.04490557697478   20.63752892155901
N         5.49423214158854    3.85273586693049   18.76828435701398
N         6.09384800342268    1.66975486097031   18.87062525110026
N         4.24829721353617    3.89679163590476   21.02536137902549
C         6.27285445339136    3.60791596204003   17.68688746873804
C         6.75108057531189    4.42171567680384   16.66212762895205
H         6.53599340647787    5.47937191878251   16.65475608743618
C         7.53864084253824    3.83658305190149   15.69966855652656
H         7.93092249697739    4.43988616266329   14.89320896042019
C         7.86133375411659    2.47170472479507   15.73992148239886
H         8.48277902688737    2.06292159240459   14.95613055122718
C         7.42545323236894    1.65674507278190   16.75607474221887
H         7.69111008278307    0.61244961188617   16.80418238481092
C         6.62885092796251    2.22326689747866   17.75202299684639
C         5.44548270255438    2.66987386352384   19.44778667095419
C         4.79272913145624    2.70115083550451   20.72030097191624
C         4.77431730023418    1.63291678883053   21.62048886177683
H         5.22413805847866    0.70358029223542   21.31277400010822
C         4.20382450400105    1.81665064005704   22.85938547173592
H         4.17371190051554    1.01252085830438   23.57883386063658
C         3.68389336518376    3.06892091335611   23.18020114804994
H         3.25352596895908    3.26005675829456   24.15007423560433
C         3.73217745625442    4.07705885084789   22.23812531640662
H         3.35709140031399    5.06600180803322   22.46719993253902
C         4.02704079093102    6.95335372316702   18.15131937658376
C         3.22615851480172    5.84164879751675   17.72739160707476
C         2.33818223937004    5.51173133596417   18.79223455167713
C         2.51580433967349    6.49150696332764   19.84497607834180
C         3.53566323759462    7.38362407783886   19.44226655166411
C         4.94094738868008    7.78526437025217   17.30413715062034
H         5.14377294001358    7.30392546244757   16.35103571488314
H         5.88343353542383    7.97024911437770   17.81727646564650
H         4.46975441147183    8.75012719245605   17.10610485404131
C         3.22982551457149    5.20800273900056   16.37314353143302
H         2.91983427326192    4.16663277210345   16.42480511627630
H         4.21546945204542    5.24466031311247   15.91632079454206
H         2.52871164527018    5.74195035331384   15.72824655848325
C         1.23287129995010    4.50471782352096   18.72765338808047
H         0.35039993412724    4.95938014019130   18.27297696728222
H         0.95968349789954    4.15220352410280   19.72011898083487
H         1.51969652175323    3.64495493008185   18.12601623988465
C         1.59827068954062    6.66549577832962   21.01643344006725
H         2.10307518297303    7.15378694446277   21.84741784326458
H         1.20172255393295    5.71162525777632   21.35843699539387
H         0.75457510571331    7.29140584236177   20.71827988908248
C         3.98535829967840    8.63081732861659   20.13107685055842
H         3.81223811438970    9.48826113880896   19.47910700443297
H         5.05172380126726    8.58101655351865   20.35197798511657
H         3.44606100416401    8.78409491917064   21.06213903534380

