50
CSD_code = ZELNUB | q = 0 | S = 0 | Stoichiometry = C19H28OSiZr | MND = 13
Zr       -1.98694662645592    1.82477913359195   10.29298918090566
Si       -2.67609523738455    4.02232115812262   13.01720763365061
O        -3.83100621692493    0.36530496546596   10.69730527111247
C         0.35059119815770    2.31509549648926   10.48165120567694
C         0.08055029854023    2.21291682929852    9.10106276520944
C        -0.79459959406341    1.29966771621278    8.42244469581430
C        -1.29893725765393    0.04467521173431    8.93095031904177
C        -1.14336579191565   -0.48375635410589   10.24223722706515
C        -0.74613823976974    0.18479604570776   11.43181625750240
C        -0.13077269408446    1.48932162682031   11.55970576695010
C        -2.12379448065986    4.26814290541014   10.11484472281878
C        -2.68816015434773    3.85151426767175    8.89831004363454
C        -3.89087211657421    3.16430195691166    9.18368923685482
C        -4.06811048141755    3.16483809088778   10.57694765598641
C        -2.96892666415807    3.83985630835518   11.17969653384784
C        -0.92375088908503    4.70169452280766   13.36109527694251
C        -3.96630961261041    5.14883897394713   13.87075085015827
C        -2.85702470266514    2.24600043187939   13.73891784710004
C        -4.57012811695523   -0.06113205299234    9.55357102924266
C        -4.59828356213297   -1.59011691465560    9.63876008586372
C        -4.53596922021014   -1.86101742513891   11.15095968493547
C        -4.26376623814896   -0.47598046518024   11.76449169453291
H         0.98086534416204    3.15443896201979   10.77879452593447
H         0.50002300225548    3.00528321635768    8.47996207323254
H        -0.89635175757924    1.44708762816771    7.34502185922440
H        -1.70953620963505   -0.63712991434644    8.18273406234417
H        -1.51590308652552   -1.49944702614671   10.38535980317736
H        -0.78624116055715   -0.40977349937525   12.34746965208707
H         0.24915772666079    1.73149856740142   12.55304623654840
H        -1.25296816921322    4.90302008936843   10.22650482488985
H        -2.32976782985537    4.10740477034825    7.90804010683185
H        -4.61449002739152    2.83547251695955    8.44562693576541
H        -4.95220808275552    2.82624844691811   11.10689114109802
H        -0.17244605750168    4.15494268226927   12.79832774367588
H        -0.67255286824844    4.62926763022489   14.41442439958901
H        -0.85267616266602    5.74762557389118   13.08094421659963
H        -4.97941538013418    4.80999779634875   13.67954990256015
H        -3.89145324650212    6.16961857707413   13.51101938826307
H        -3.82096848665579    5.16650434464976   14.94593883204007
H        -2.33645855763190    1.52899460023995   13.09141537690698
H        -3.90430606618675    1.95865394121544   13.79708699368594
H        -2.44507125352784    2.16258131150098   14.74023497677288
H        -4.05599491306893    0.31538560814918    8.66051158914589
H        -5.59130001443757    0.34763253869883    9.60445081495338
H        -3.72360439834083   -2.00529898584981    9.14004391221888
H        -5.49153715765189   -2.00378016519358    9.17635112982501
H        -3.73272739798458   -2.55542482447200   11.38841999650165
H        -5.46811647598650   -2.27674778617574   11.52896154426170
H        -3.47637693781781   -0.49233954693906   12.52120478952843
H        -5.18435797470236   -0.06127948254485   12.20175818750208

