49
CSD_code = ZELWUI | q = 1 | S = 0 | Stoichiometry = C24H18Cl2N2O2Rh(1+) | MND = 6
Rh        4.92583953123977    1.95915518993479   -0.00018735582399
Cl        4.84859262272760    4.27611194987970    0.04584747200742
N         4.51224753515648    1.93993166409153    1.93181317129130
C         3.19286113607999    1.89168506741261    2.22219333028794
C         2.73546038048294    2.03232052184887    3.52866267256025
C         3.66085039745840    2.16381129731656    4.55203769442533
C         5.01192495006025    2.16530537397510    4.23950090819521
C         5.39736261981251    2.06513954906425    2.91057305042820
C         2.36836724451510    1.78540749754439    1.00752370136240
O         2.96671295566094    1.87656583909833   -0.08232161954522
C         0.92089248155725    1.61215159250250    1.03473659664982
C         0.15482824605001    2.25139600973949    0.05261619790067
C        -1.21632884378518    2.09780968671625    0.03386032043386
C        -1.83690945855274    1.28566890519756    0.97223252299098
C        -1.08046955585791    0.61978353677407    1.92596487931096
C         0.29087083978062    0.78053671369842    1.96697811018515
H         1.67727305104786    2.05982003911198    3.73081669491763
H         3.33176075125750    2.27191838802849    5.57358959676589
H         5.76093225928224    2.26222625390797    5.00868147344187
H         6.44062330724701    2.09537967175583    2.62117061879939
H         0.65105668949612    2.88796746730284   -0.66380348949852
H        -1.80395256142145    2.60683484902882   -0.71394164363368
H        -2.90844062528426    1.16194391002616    0.95364095858773
H        -1.56266216695962   -0.03310734527311    2.63665590049096
H         0.87875013084831    0.21665491663112    2.67446171000756
Cl        5.00539205097744   -0.35700579194363   -0.04522758739907
N         5.34034575798346    1.97960726127733   -1.93193794786543
O         6.88508707040336    2.04338994635588    0.08214302156816
C         6.65969501912053    2.02793071182157   -2.22234049928653
C         4.45524211428239    1.85434192188278   -2.91063485838469
C         7.48390954881275    2.13419504245857   -1.00755405171550
C         7.11716513639407    1.88713960511110   -3.52876039987608
C         4.84067631110113    1.75410692061033   -4.23954553464684
H         3.41199346993424    1.82409261579354   -2.62119370830693
C         8.93143559259892    2.30749315353297   -1.03460333527362
C         6.19175687411557    1.75555837509553   -4.55210881236146
H         8.17535937110844    1.85960188111899   -3.73088605861657
H         4.09164483494986    1.65717112848025   -5.00869427795809
C         9.69755163288420    1.66827676941288   -0.05248558331035
C         9.56151455331285    3.13903580797898   -1.96690360044280
H         6.52083179326026    1.64743196818340   -5.57366170482894
C        11.06873124113023    1.82184030606351   -0.03378471825079
H         9.20136575270792    1.03161099935468    0.66386827622376
C        10.93286591637439    3.29979371218179   -1.92592362798887
H         8.97366537319331    3.70275132153606   -2.67454676047682
C        11.68931915114246    2.63391534311325   -0.97221355232937
H        11.65638648405156    1.31281793291009    0.71399781926134
H        11.41506716778744    3.95262769678527   -2.63666948973815
H        12.76085386447384    2.75765682557023   -0.95363648053548

