50
CSD_code = ZEMLOS | q = 0 | S = 0 | Stoichiometry = C20H23CuN2O4 | MND = 4
Cu        0.57195509575224    1.64299060423406    1.81755400427091
O         1.24432948786990    1.57953930139063    0.11646971874050
O         2.58144135398094    1.16154946186166   -2.02247175246059
N        -0.79858817853595    3.04310258415598    1.45323255142375
C        -0.08980631854025    3.33571995895923   -0.84980722729638
C         0.91267830071093    2.32999525781724   -0.86822905562874
C         1.63184796985909    2.13657554330752   -2.10190122778558
C         1.35249160713760    2.89010693027619   -3.21170479454614
H         1.89314604729984    2.73963462424951   -4.13329362098840
C         0.35401995308897    3.87488557283423   -3.16893996139014
H         0.15061765653174    4.45510743250310   -4.05565005166065
C        -0.34359492447679    4.09121350075134   -2.01849235329624
H        -1.11182178749957    4.85029091441954   -1.98219713174269
C        -0.86210807353442    3.62474628443453    0.30658533913214
H        -1.58860663480167    4.43499590333443    0.18551219743337
C         3.36417738626878    0.87945710889585   -3.16070506276447
H         3.91485258209935    1.77787457904599   -3.47551419540244
H         2.72184378536929    0.55502953758645   -3.99233402230369
C         4.33681293991111   -0.22809274741310   -2.78477846766369
H         4.95930713892128   -0.48173986875075   -3.63816116349713
H         3.78665109501608   -1.10941888957992   -2.46688750642953
H         4.96956943719652    0.09883971484932   -1.96431921489183
C        -1.67435947906640    3.46718298287112    2.51367838230229
H        -1.08714172091085    3.61207743593644    3.42017660981440
H        -2.39918106198611    2.67502843227753    2.71672148175108
H        -2.20850906076278    4.38581521509050    2.25082942321828
O         0.56699706742600    1.80367686817929    3.64598126333580
O        -1.09696693695642    2.62753943270652    5.52957761171328
N         1.59905575901087   -0.18514383451998    2.18137390029290
C         0.27986539751125   -0.49308269415219    4.20265506165112
C         0.01612198596816    0.90262118639830    4.37652425412743
C        -0.88005551751729    1.28404758318543    5.43573782550418
C        -1.40256746001226    0.34182384896626    6.28463809606336
H        -2.04675665724866    0.62755224203969    7.10132404690280
C        -1.11278158510106   -1.02089221590841    6.10482181428589
H        -1.54824728492432   -1.73823505351183    6.78410003979689
C        -0.30064719251639   -1.43013261115417    5.09201278871274
H        -0.07796870968660   -2.47784967417586    4.95321284772940
C         1.09724156310988   -0.93700989910786    3.15678479251290
H         1.25168247681468   -2.00872069010414    3.06881631182985
C        -1.86093362636489    3.12072320315375    6.60814940304193
H        -1.39659990907961    2.83441654323276    7.56244786756156
H        -2.87780703175013    2.70287731603999    6.57539154171329
C        -1.91369051526602    4.63586294402023    6.48322554222169
H        -2.46293713257721    5.05751023467830    7.32033977809720
H        -2.40492011471283    4.91650009602697    5.55546990964486
H        -0.90501235575092    5.03932583883214    6.47691271291048
C         2.68119032986250   -0.39526732743268    1.52324626349991
H         3.46327274765676   -1.03343797103996    1.91773749190073
H         2.83444010517893    0.12878725828311    0.59554593662176

