67
CSD_code = ZEMNIR | q = 0 | S = 0 | Stoichiometry = C26H28CdN6O4S2 | MND = 6
Cd        9.11122705281368    4.54566730958030    8.71916532917349
N         8.53299691956366    3.84186354770047   10.61314094328809
C         7.90647769278666    4.33915442260894   11.47461722607238
S         7.05223855899374    4.99444080350893   12.64413517783088
N         9.59740349813716    6.58426039922831    9.98830247438748
C        10.32156174506592    6.29416273063652   11.06302370661439
H        11.04577860644097    5.49556226180001   10.95636329360578
C        10.18078964611362    6.94150745235162   12.28463671695252
C         9.23468432456986    7.95460926385342   12.37994591893198
H         9.07578000361663    8.46870958005198   13.31677493040017
C         8.49803877065560    8.28177668579306   11.25542297737007
H         7.75880986453361    9.06690498324740   11.28686073750237
C         8.71313202860428    7.57000388148041   10.08532295801906
H         8.15741527736362    7.80462888887053    9.18626087034560
C        11.01057400685157    6.51490582020998   13.46796773796175
H        11.14618351569580    7.36561555202660   14.15242246179729
H        10.47226449824005    5.72886887521271   14.00871930629099
O        12.24799920439547    5.94831038163959   13.11720057337736
H        12.76657124690504    6.59949916246915   12.63122274179259
N        11.38884283906368    3.85512731932075    9.11308299944525
C        12.31889225002821    4.23493788858997    8.24473633667966
H        12.18741571108733    5.20919166680801    7.79084536757201
C        13.42154810948575    3.45764017423282    7.91235716216544
C        13.57805668798389    2.24288003732706    8.57142872763987
H        14.42182478298509    1.60657252960174    8.34484810678403
C        12.64417229102827    1.87175718216345    9.52310049800966
H        12.74887229802780    0.94737149948446   10.07009890809396
C        11.55516930226140    2.70088716419172    9.75017391388982
H        10.78990024933565    2.44754327720790   10.47453546615352
C        14.40537300639290    3.91626246493037    6.86380384771402
H        15.34848751585795    4.18735276063680    7.35365617110712
H        14.61232929233590    3.07300066539381    6.18550079528982
O        14.00442838728208    5.04862180673557    6.15359293843665
H        13.20616350789897    4.83562768707624    5.63802803157501
N         9.68888772954353    5.24693561797012    6.82322762372479
C        10.31257037082002    4.74701074309718    5.96142153512175
S        11.16402636705857    4.09097641381413    4.79012571764144
N         8.62442180263833    2.50494258386557    7.45504287791275
C         7.90252545744354    2.79251919279560    6.37815285852409
H         7.17974595160483    3.59298804068212    6.48078061566535
C         8.04425023824375    2.14057434649988    5.15908554219329
C         8.98867885300895    1.12544268068774    5.06907685462939
H         9.14824722980015    0.60777183794572    4.13431973514096
C         9.72263677398205    0.80073150405270    6.19604972645397
H        10.46012050026039    0.01379913390293    6.16874930046494
C         9.50687977685687    1.51709778865775    7.36320831704343
H        10.06039610966537    1.28461985982176    8.26417600447258
C         7.21758589752605    2.56461945909486    3.97267777494397
H         7.08310925731336    1.71224192170397    3.29007951586140
H         7.75775946724343    3.34892144558815    3.43126022746019
O         5.97971012227996    3.13294454132431    4.31901326646909
H         5.45968254242111    2.48356230833904    4.80584539749356
N         6.83616472716693    5.24106955969254    8.32262214071035
C         5.90331944368605    4.86336018824789    9.18888773454156
H         6.03216611297171    3.88927129655737    9.64385386541206
C         4.80103061754386    5.64261481486573    9.51787880407679
C         4.64812186984363    6.85720621359067    8.85761423202035
H         3.80473181964091    7.49496034664979    9.08147002456130
C         5.58520198940864    7.22631738980250    7.90829971331351
H         5.48348472365957    8.15053903545028    7.36048743397184
C         6.67345549346979    6.39529964649806    7.68455810951048
H         7.44110719541823    6.64713027907637    6.96223754345031
C         3.81373755206911    5.18628659495139   10.56416675287554
H         2.87048432187359    4.91935871375866   10.07233519720828
H         3.60868883690718    6.02942572461400   11.24321044592018
O         4.20923688173088    4.05160396841675   11.27371403272931
H         5.00703127458525    4.26113068202415   11.79137572614493

