37
CSD_code = ZEMNAJ | q = 0 | S = 0 | Stoichiometry = C14H14N4O2S2Zn | MND = 4
Zn        4.27735794783145    3.46272189977647    7.94045709080588
N         4.66623197823073    3.46246539173670    9.73161565919578
C         4.77133198903386    3.47284002859185   10.90829428505211
S         4.86691828947827    3.48636881814651   12.47470752224010
N         5.41776373237253    3.46355853116343    6.50578408450921
C         5.97379843280654    3.46205519355672    5.46402267966381
S         6.68221517169683    3.45997207994356    4.06323736956647
N         3.03853285396073    5.08898580954537    7.62921366250941
C         2.78890870264665    5.49320386607025    6.38967933192386
H         3.12303754884069    4.85310875163933    5.58716764677661
C         2.13085757397607    6.68056560183314    6.09624248880022
C         1.71216007714944    7.47418698209439    7.15715750628997
H         1.19616506888713    8.40554141450311    6.97435465152680
C         1.96949298189098    7.04959925636118    8.44993377840564
H         1.65968681490837    7.63761296643595    9.29901681149646
C         2.63683988776527    5.85208900041085    8.64125019784813
H         2.86391404202729    5.48705105724679    9.63247589958719
C         1.91215427124718    7.08470043404853    4.66431324150826
H         1.80320893910647    6.18448263913791    2.93685598810078
H         2.77043451360662    7.69833072315962    4.34702292294080
H         1.00676881729127    7.70595449633882    4.59094731788190
O         1.79761585417782    5.93325162580240    3.86568935887654
N         3.03847649069140    1.83758223089100    7.62482168553077
C         2.79504508324100    1.43120681678840    6.38480915950025
H         3.13746257482865    2.06759353590573    5.58281232290369
C         2.13342860317589    0.24597690682060    6.09021214122687
C         1.70433897032211   -0.54290704495919    7.15051507557124
H         1.18503486392580   -1.47225007283068    6.96689079149747
C         1.95567056826482   -0.11623555183043    8.44384685148328
H         1.63787826637909   -0.70066880726886    9.29242880447478
C         2.62715975381660    1.07878528627954    8.63629952478835
H         2.84975216599890    1.44546002693569    9.62797070930901
C         1.92203271017826   -0.16019629606856    4.65786232682991
H         1.81551131764526    0.73875734561883    2.92947537515256
H         2.78405887200068   -0.77068498669946    4.34424217647721
H         1.01910394191521   -0.78471227175014    4.58085101857599
O         1.80695032868417    0.99094631462208    3.85812254117337

