42
CSD_code = ZEMQIU | q = 0 | S = 0 | Stoichiometry = C17H14Cl5MnN2O3 | MND = 6
Mn        2.00358579464627    4.60774802391497    7.45360106204129
Cl        2.95374566262535    8.33371731522219    4.77866058825919
Cl        0.71157928287895    5.94774537165700    0.51754767288782
Cl        1.74006910382626    8.52116138519766    9.93950656393725
Cl        1.29457840326886    5.84877402136442   14.58269013450764
Cl        4.06027980633207    4.03059899342890    7.42341461758510
N         1.64295595848822    3.27798037370005    8.78800583968410
N         1.43797392639856    3.30047055240338    6.25502571745947
O         2.34022650535498    5.84107917226864    6.10527869987858
O         1.76603950227138    5.85638716243587    8.77617555855241
O        -0.31552955779947    5.35869822667587    7.18968507524262
H        -0.37161392867344    6.05892250246021    7.85294198151994
H        -0.34800100906604    5.80109837587058    6.33404689602596
C         1.97510070719968    5.82697810665295    4.88532505165254
C         2.19871293914947    6.96834550753708    4.05296951642644
C         1.81373491636016    7.00427949906867    2.73993247405332
H         1.99210274176796    7.88404922141240    2.14332061057901
C         1.18728898397974    5.88287097965298    2.17617667949863
C         0.95262058828744    4.75624939765884    2.91611132924811
H         0.47511247646136    3.90007619113810    2.46522991593735
C         1.33171915644345    4.69559846298223    4.27382065593150
C         1.10752566461286    3.50530964181295    5.00572381002135
H         0.62357782129519    2.70059819071379    4.45529771553768
C         1.19226710938665    1.95677958109016    6.78124132664314
H         0.10867465357467    1.77013482264080    6.75892721700940
C         1.69174904926351    1.94112565481260    8.23122551995312
H         2.74990645535522    1.64764845741324    8.23030500053663
H         1.12096198135503    1.22969421183979    8.83765642709289
C         1.53421820425753    3.37612730593138   10.07290435397937
H         1.40199770527873    2.47290184629545   10.66942458894994
C         1.55983593811584    4.61258631569941   10.79144054726488
C         1.43413141057996    4.63279017125965   12.18539416458319
H         1.34970915997778    3.70278550948383   12.72560853465747
C         1.43130368223043    5.83148372484083   12.86320393778610
C         1.52894382243481    7.04305523309895   12.18074351710851
H         1.51990425779059    7.97697666305990   12.71912191513913
C         1.63107700684766    7.03651771012740   10.80749483123306
C         1.67774656284310    5.83185555454104   10.06432927443825
C         1.92985494932615    0.88460187121505    5.97446567531112
H         1.86397046216391   -0.06949431979597    6.49057435566431
H         1.50812928251601    0.76397775210958    4.98082310830311
H         2.97633286059232    1.16701525910897    5.88032753787794

