48
CSD_code = ZEMSEP | q = 0 | S = 0 | Stoichiometry = C22H20CrO5 | MND = 9
C         8.66969021540783    3.21151684567836    3.78382854113560
H         9.73228204311761    3.22072817777629    3.53908495705664
H         8.35651183835419    2.17813728147418    3.94682044747943
C         7.87717500475346    3.79494030626606    2.57551510734054
H         8.09744472183334    3.19831397290430    1.68855539701288
H         8.21344301966214    4.81857990247158    2.39858308419968
C         6.40921051866796    3.76890937602645    2.88756233087533
C         5.62506051546107    2.64094617746564    2.59897488565858
H         6.03474970199808    1.82969647876268    2.00811362022529
C         4.34910230040600    2.49345204808634    3.18041037721055
C         3.92286755505787    3.41131250641169    4.17763618081369
H         3.03442381054611    3.16664812834124    4.74948128157426
C         4.66189063795100    4.55141009577260    4.44545174859506
C         5.83468840820427    4.78867415730765    3.67092155048154
H         6.41466375812737    5.68197331621087    3.87571482032350
C         4.40199638206521    5.38409425945636    5.66746789471703
H         3.34216573571959    5.37020692072828    5.92711037110383
H         4.70688587269817    6.41870754190456    5.49833766720367
C         5.21723407303110    4.81042297405203    6.86411146942258
H         4.88846164773317    3.78704697163798    7.05607752512325
H         5.01034525871477    5.41607063468034    7.74703387545132
C         6.67646823775261    4.84391073184459    6.51760565879582
C         7.47353334038628    5.93830520439423    6.82419637733053
H         7.09927231640958    6.70580851038791    7.48601188654122
C         8.73692541076401    6.05838093353755    6.26963980790005
H         9.36132545485435    6.89912706501262    6.53304178359603
C         9.16826946079516    5.15233146719858    5.31564636099871
H        10.10845134729756    5.30962350718471    4.80726296547593
C         8.38695914452584    4.05037535209863    4.99449089937588
C         7.18783476576624    3.86408028526209    5.67349229968443
H         6.60932163329309    2.96720272488025    5.49202771233666
C         3.45821812037858    1.37254806819978    2.83213517131021
O         2.46969535714956    1.06716793198537    3.45895811241934
O         3.87115202039995    0.74986310114998    1.71443551669991
C         2.98597615378085   -0.21726709825648    1.15166774081191
H         2.48728941365100   -0.75967428257817    1.96164401787167
H         3.62602929993712   -0.89721493951622    0.58537410957365
C         1.96321830438481    0.45778722623938    0.24943490428524
H         1.34347920442915   -0.29474146967533   -0.22921344459468
H         1.32860242926115    1.11927936219577    0.83414621922891
H         2.46793319236776    1.04665903689080   -0.51289377333796
Cr        4.35880270900281    4.37470233107598    2.05338119327984
C         4.19275824607969    6.13560204435348    1.59987356398710
O         4.09122293082604    7.22663083469832    1.23581446260157
C         4.69301619637085    4.26267393596104    0.26940724341842
O         4.84609431202164    4.23304061081098   -0.87490750085756
C         2.63699752093355    4.21407035573698    1.45749257997486
O         1.58956045767253    4.09343909551109    0.99394099828845

