66
CSD_code = ZEMSIT | q = 0 | S = 0 | Stoichiometry = C28H28CrO5S4 | MND = 9
C        -0.22281037363427    1.02806251077666    6.57483800802780
C         0.93783019484422    1.12236903629028    5.54296388645031
H         0.60646059842120    1.77016021141919    4.72770263927061
H         1.11270563924514    0.12162272395026    5.14366339744497
C         2.17216206642811    1.66295857982770    6.20585434033015
C         3.09448805258474    0.81582648264872    6.80441113574478
H         3.01418450353240   -0.25660591335299    6.67786538870602
C         4.07737691701149    1.33162882193888    7.68992562719668
C         4.02881583712166    2.68847418731431    8.06210321733093
H         4.65898993160649    3.01918359937760    8.88041151338572
C         3.10252044826751    3.56112393221055    7.47254350195849
C         2.29324050907952    3.06328212423564    6.43066032380324
H         1.58827185088832    3.73056645625265    5.94573250201697
C         2.80658412191278    4.90107768753743    8.08048271528834
H         2.50908838114583    5.62730061958197    7.31984372465769
H         3.67478570560292    5.29143720467099    8.61430367946540
C         1.63572553254365    4.77543823550145    9.09919093020998
C         0.42464201816001    4.25541121748010    8.37815531240635
C        -0.47868558077913    5.10972198055249    7.75842371810607
H        -0.42916592481804    6.17238821228014    7.94202051879445
C        -1.41375759957463    4.60312913211177    6.87310603937786
H        -2.12403652255096    5.26891054128620    6.40720707096985
C        -1.39023407403399    3.26682284206853    6.51373310578851
H        -2.04482168906992    2.90600735235921    5.73467881631147
C        -0.49428700660791    2.39956161422049    7.12575479205489
C         0.35009899619620    2.89173165306978    8.11518886281769
H         1.00896001400870    2.21292757308643    8.63900502236575
C         5.08088317860907    0.45576567999766    8.32549773677351
O         5.78548429301665    0.78847228324532    9.24960606304022
O         5.13297955876728   -0.74749281493389    7.73151591894295
C         6.09569689294138   -1.67203353205783    8.23508590196291
H         7.00215522887561   -1.12278601071223    8.50883621606610
H         6.30498380307265   -2.34356863173612    7.40019240212318
C         5.55782689625216   -2.43483872211226    9.43734965976383
H         6.28879736284164   -3.17125366435646    9.75827746000321
H         5.36747989220686   -1.74667485239606   10.25760739078332
H         4.63131222491545   -2.94216903223842    9.17836703792015
S         0.28930664761568   -0.16256901945553    7.88331251294370
C        -1.22720108023014   -0.14973581806308    8.88965767223272
H        -1.40490492749037    0.87565656420265    9.22165280597743
H        -0.98819338866103   -0.77021564695838    9.75253213705710
C        -2.42536627284271   -0.70203885922500    8.13515366439682
H        -3.25541736649159   -0.82546702102895    8.83647248009612
H        -2.17622399500318   -1.68206175535762    7.72223541676084
C        -2.86943445479431    0.22540944685453    7.01640840900278
H        -3.04482638051836    1.23704156230636    7.38814958103293
H        -3.77626371574801   -0.14452395752594    6.53965940801285
S        -1.65190331541516    0.31837038615627    5.66252164295492
S         2.19024728660964    3.64679539546186   10.44431777848071
C         0.72095150728400    3.73246747838477   11.51568714896161
H         0.92478711969445    3.02009887558264   12.31419945199147
H        -0.14158562200499    3.39042774733949   10.93913797219435
C         0.49443797855817    5.12774553320593   12.07383378248965
H         1.41161815239120    5.48374703856659   12.54804059504948
H        -0.28948358027393    5.07898343013324   12.83487453951624
C         0.06375614891363    6.10771275578013   10.99536926970666
H        -0.17626895617332    7.07961797931729   11.42454268455037
H        -0.80158030556156    5.73360893294624   10.44432046132751
S         1.39407301124350    6.45769904074629    9.79864243023299
Cr        4.34865137276361    2.51856851526259    5.84984079795146
C         5.79504787792668    3.62819722690420    5.80981178503060
O         6.71096733333958    4.32049768667908    5.70469565011632
C         5.50809361721359    1.36141793473180    5.03091968464385
O         6.28592251141444    0.69086233186962    4.51188919570029
C         4.15203262788016    3.23524969610876    4.18387320892901
O         4.08832828933095    3.72019719767808    3.13814225499775

