62
CSD_code = ZEMZOG | q = 0 | S = 0 | Stoichiometry = C20H32Cl2O2P3S2Tc | MND = 6
Tc       19.14262125947243    5.62312220547798    8.31321909745582
Cl       19.92965409333020    3.61852479376777    7.56722066711089
Cl       18.20050588742797    7.51573421529710    9.11613461573827
P        20.46730295121266    6.85721552361583    6.79596980643571
P        17.27613336304259    5.16067334199476    6.90201809597538
P        19.74629974640323    4.67320265504935   11.13590706486069
S        21.01835185504717    5.73469353530610    9.98452834304075
S        17.98774638989855    4.36924098791600   10.22709789532818
O        20.43220471297210    3.32481608062594   11.62755815745777
O        19.58034206007703    5.27042178642623   12.60062616745109
C        20.87281265649824    2.37211217904867   10.66115945124398
H        20.01452725693973    2.02944955360626   10.07056829759706
H        21.59037029641187    2.84697254948508    9.98050368135603
C        21.51494333280559    1.21652126200860   11.40128245772284
H        21.86013832595515    0.47514822178133   10.68637377047349
H        20.79317125464082    0.75992336256813   12.07350529638721
H        22.35864652305093    1.57345296467889   11.98617396130607
C        18.72888285237784    6.38136595299537   12.85933845580282
H        18.48111278791067    6.29944031906386   13.92147660832452
H        17.80803701047275    6.28340879103861   12.27045955117243
C        19.40976215451493    7.70500544301193   12.55958248512286
H        18.78605514066141    8.52164565916966   12.91284362385776
H        19.55758278385640    7.82314299499455   11.48751742988878
H        20.37679535348450    7.74847427992926   13.05528982239606
C        19.66551640392437    7.66565878939909    5.37619206988025
C        18.68381190249796    8.61033931301216    5.66875569464876
H        18.44345687699242    8.81027500507500    6.70406494673359
C        18.02094572147017    9.26681310158320    4.64866509491676
H        17.26564712251562   10.00320594831178    4.88112889437550
C        18.32374779747958    8.97815978992916    3.32659729221214
H        17.80681391535300    9.49004843678851    2.52856997268213
C        19.28688020321939    8.02871492439256    3.03077507863117
H        19.51866938953704    7.79813901380101    2.00116721546847
C        19.95687806640192    7.37160543322040    4.04990350847190
H        20.70153791304968    6.62888492489484    3.80813231681842
C        21.30937884088983    8.28047199748108    7.57458286910419
H        21.95218321349621    7.89734339979379    8.36653197287107
H        20.56203664711276    8.93781033130585    8.01463018345839
H        21.89772304513997    8.82219446885642    6.83473668828954
C        21.87706885027516    5.94144286788614    6.09351730451398
H        22.46571591610602    5.58012592996509    6.93650397133412
H        22.48640900071740    6.58747721757346    5.46307260439501
H        21.51218876870102    5.08012695055163    5.53779475510322
C        16.31807086303474    3.74270642873751    7.50854460320525
C        15.26391395490761    3.93671388140709    8.39650308838105
H        14.97765921439518    4.93813894803556    8.68185327245892
C        14.59616195814398    2.84988865028481    8.92987946133779
H        13.78000505113042    3.00715910647067    9.61993002359604
C        14.98215128179513    1.56298449610716    8.59425797545040
H        14.46478817467482    0.71512985665344    9.01903943813428
C        16.04352399558475    1.36456177708274    7.72678018021874
H        16.35762262204386    0.36142156409126    7.47689679502655
C        16.71400796403379    2.44750841903418    7.18870524493992
H        17.56069367406525    2.28991010285130    6.53751660070016
C        16.01356537328905    6.46173713203149    6.67598667701319
H        16.43919536727662    7.23367797835156    6.03707038651207
H        15.77227920018122    6.90679140226881    7.63876492344503
H        15.11991197375147    6.04132499051331    6.21630344819531
C        17.63705197494314    4.70015973314436    5.16865844185904
H        18.44597436806971    3.97320029429012    5.15337904678059
H        17.95638133771808    5.59392585786076    4.63517774812074
H        16.74573200735710    4.28291287812642    4.70187540744937

