27
CSD_code = ZENBOJ | q = -1 | S = 0 | Stoichiometry = C7H10CoN2O7(1-) | MND = 6
Co        3.30204713598675    2.43444209760292    1.02277495353735
O         4.78073433202396    2.88583292930117   -0.16418385870187
O         6.81987007370512    3.77984352700931   -0.13671812333680
O         0.49949851343400    2.02788143265238   -1.61928950923237
O         2.23798599912533    1.63198913163837   -0.29024349934704
O         3.83840208955932    0.90108332612864    1.89168937612484
O         2.09022041145786    2.02002673414141    2.32995934978465
O         2.57472126585575    0.26012994836805    3.64397267052292
N         4.34448539569053    3.52488831401073    2.29698560880312
N         2.46697154399985    4.10315492940391    0.43555866103625
C         5.83003062256534    3.31223301385310    0.40049901963462
C         5.74631777706717    3.26527435588363    1.96392947085677
C         3.97610024178071    4.93793616931846    2.10841524977919
C         2.54406909525913    5.01541445785751    1.57142101086978
C         1.13795393109819    3.73076567600984   -0.03536312380923
C         1.28175358198749    2.33242482890467   -0.73897260448509
C         2.80351210906986    0.97162368629065    2.68981843879526
H         6.00256519517551    2.25034435986705    2.27201118713621
H         6.43176768551300    3.98557757120836    2.42741548160970
H         4.65725298015935    5.36390776319774    1.36464636836554
H         4.07716327325278    5.50926159339250    3.03935457122173
H         1.84840828653118    4.65115802749357    2.33217509256326
H         2.28155363295427    6.04944732454946    1.30344121800532
H         0.69048775665690    4.47122015138582   -0.70763862923123
H         0.48595102748301    3.56814285688207    0.82532237314637
H         4.14354670416314    3.23698456457405    3.25511840537224
H         3.00592933844453    4.47021122907477   -0.34989915902155

