56
CSD_code = ZENCIH | q = 0 | S = 0 | Stoichiometry = C19H30Cl2N2O2Pd | MND = 4
Pd       -3.19356486681411    8.22654006560889   27.75913047266454
Cl       -4.17584563818142    9.95466003027890   28.72045460325698
Cl       -5.19321450407732    7.39051141448178   27.29710014782957
O        -0.76472621208582   -6.16612038051612   18.82534242622411
O        -2.59768278320087   -7.44558426472482   18.96794147053928
N        -1.32167614059023    8.89913455486446   28.11669971674994
N        -2.17403724501081    6.72538955991186   26.92401548197568
C        -0.93919886419057   10.01331098282077   28.73569116068891
H        -1.73879945041582   10.64578001126046   29.10562969415612
C         0.39372233265123   10.34715524158070   28.89858719217793
H         0.66025436621145   11.25929491584394   29.40691869354124
C         1.37380127493750    9.49414820288226   28.39980711884258
H         2.42007778379042    9.73223260930869   28.51334128578948
C         0.98249263474207    8.33672615215989   27.75703806778842
H         1.70738766199747    7.64635936068142   27.35482125892781
C        -0.38057315836254    8.05816838280910   27.62735914449527
C        -0.89628793216963    6.87803070717255   26.98232041447491
H        -0.19332021885950    6.15843634912206   26.57337198055489
C        -2.79751442907342    5.57877357867233   26.31382224483898
H        -3.48803567287123    5.96660858200635   25.55377081628471
H        -3.43256077044536    5.12254274365598   27.08432457857989
C        -1.88446153985751    4.52093969151543   25.69786717079739
H        -1.21632628506544    4.10961867512037   26.45889805940521
H        -1.27617378794886    4.96548434579731   24.90592112004590
C        -2.72069220509424    3.38709596077771   25.10632215704749
H        -3.32144893591694    2.93148977561126   25.89583369289162
H        -3.40826406368730    3.79532314365680   24.36312069008550
C        -1.85114806912530    2.31586709660261   24.45202049767324
H        -1.25555256135777    2.76836955630537   23.65551169518204
H        -1.15810231783232    1.90691644978263   25.19117576080086
C        -2.69286129050876    1.18352686746671   23.86915320030270
H        -3.39849347267285    1.59693898992851   23.14512641246143
H        -3.27532159805919    0.71963606808731   24.66823869277221
C        -1.83676330310722    0.12019733440176   23.18573550701494
H        -1.25370422733994    0.58427507378978   22.38677895555426
H        -1.13176435593991   -0.29797741497402   23.90803444115162
C        -2.68740195646460   -1.00413513275560   22.60022442143876
H        -3.40110403401178   -0.58130346059807   21.88930070280766
H        -3.26131974204870   -1.47636704692171   23.40094725483939
C        -1.84078494964449   -2.06066782793619   21.89469402714499
H        -1.26351089327262   -1.58785497987803   21.09707276136558
H        -1.13065271980366   -2.48981129181766   22.60506500568573
C        -2.69857732469940   -3.17560181107791   21.30148691207841
H        -3.41370214052658   -2.74268906751711   20.59794782636344
H        -3.27025010853096   -3.65437707552743   22.10016004300352
C        -1.85406341630803   -4.22414862809572   20.58368103539132
H        -1.13710489080957   -4.66038743912796   21.28166590326922
H        -1.28225627310103   -3.75518080396974   19.78137559848400
C        -2.71534406281882   -5.33513677738349   19.99062839541071
H        -3.26130670854874   -5.87359433301522   20.76679717946587
H        -3.45505948966876   -4.91278893921260   19.30512419141913
C        -1.89263726200563   -6.32929267432166   19.20582015652753
C        -1.94100332118018   -8.45350082026493   18.21114027979667
H        -1.70633324917555   -8.08406192480920   17.21086209211442
H        -2.63114127471965   -9.29121783800913   18.15655761581311
H        -1.01216633713046   -8.75078254150922   18.70192257401184

