43
CSD_code = ZENCIE | q = 0 | S = 0 | Stoichiometry = C14H18N4NiO6 | MND = 6
Ni       -0.90682008524016    0.00002689583875    9.61141083697008
O        -1.50477141542998    0.30235706708801   11.41232055774412
O        -1.94964068257622   -1.50167551308992    9.72728178469689
O        -2.67500247281959    1.55501808536699    8.86466669029756
N        -2.24654079869417   -0.74273127437822   11.71904222886580
N        -2.49173498359886   -1.65743643327612   10.87978377953898
C        -2.77635446141491   -0.81984607297332   13.01762530550980
C        -3.62082638396096   -1.86852234996986   13.37069499571602
C        -4.12649077575572   -1.92074010542457   14.65527590178722
C        -3.79742004704332   -0.94102694972410   15.58086795126548
C        -2.95618314166235    0.09896821665546   15.22092482654213
C        -2.44218146592238    0.16551657229437   13.93932032153160
C        -4.04737043522682    1.25255539072324    9.00715397537723
H        -3.86543944560311   -2.62149187109790   12.63963128570395
H        -4.78181848658972   -2.73068139511162   14.93799284470715
H        -4.19678938092624   -0.99053601596418   16.58256606649064
H        -2.69762669760396    0.86072801991595   15.94067888951240
H        -1.78134080300265    0.96106227970029   13.63286668800749
H        -4.66523662257523    2.07390534012168    8.62820252961510
H        -4.23348526110286    0.35795468084535    8.41542808881350
H        -4.31619009120573    1.05362892080739   10.04950243763468
H        -2.45437934383700    2.30525510912712    9.43271390756489
O        -0.30887920111554   -0.30224784938883    7.81045271670276
O         0.13599134041306    1.50175363512742    9.49556794054937
O         0.86121049800239   -1.55530683881082   10.35780927349399
N         0.43289174443859    0.74285525999147    7.50378533521933
N         0.67806685305542    1.65754227544863    8.34306473079880
C         2.23360619795238   -1.25317817817754   10.21489711175878
H         0.64020611292371   -2.30541330778964    9.78974011000169
C         0.96271467381290    0.82003285374542    6.20520675294072
H         2.85138371447039   -2.07470665870176   10.59361200612543
H         2.42013544698285   -0.35865971588874   10.80661532707886
H         2.50213872287511   -1.05427022738103    9.17247482654838
C         1.80716055069865    1.86874542597063    5.85218383259485
C         0.62857668521690   -0.16530747908580    5.28347584405198
C         2.31282994473622    1.92102422965423    4.56760707109948
H         2.05174913497418    2.62169053128177    6.58328062218782
C         1.14261079553327   -0.09871800678519    4.00188705731166
H        -0.03225420569751   -0.96087166341502    5.58990284609700
C         1.98381622409888    0.94131767089934    3.64198717725498
H         2.96814970285218    2.73098181941245    4.28491906598304
H         0.88405816619457   -0.86043681700967    3.28208876296765
H         2.38318017937262    0.99088444342779    2.64028969534191

