32
CSD_code = ZENDAA | q = 0 | S = 0 | Stoichiometry = C11H14Cl2N2O2Pt | MND = 4
C        13.24712227966683    0.68756306584025    0.98616520161371
H        13.32535179625769   -0.34571904839992    0.67323589471900
C        14.28850930858397    1.58169338377416    0.82211005066996
H        15.20968398094017    1.25386086979435    0.36917060976803
C        14.13035674908368    2.89778730110717    1.24914582646622
H        14.92988996333378    3.61285782699716    1.13376164671123
C        12.93235506532108    3.27005975249824    1.82358832243419
H        12.76365374387422    4.27727359588056    2.17058797392767
C        11.91910573634957    2.31777554641558    1.96083144131142
C        10.62466601796683    2.58427485481585    2.51547532995971
H        10.36272998429561    3.58829912500888    2.83821688413075
C         8.43980542697783    1.84444390160284    3.02851396650615
H         8.36690719541027    2.81715246511426    3.53047672779057
H         8.15894022935360    1.04303539257703    3.71687487165467
C         7.47504099480117    1.79339400071936    1.83520337572072
H         6.45695349853052    1.87233076579632    2.21756359006919
H         7.58844092611074    0.82587241899281    1.34158487590928
C         7.73667751079813    2.91832657617497    0.82981754630515
H         7.61846905131404    3.89358481677129    1.30425108210967
H         8.74147419807502    2.82223421908625    0.41508096272654
C         6.73489625376522    2.81237312879890   -0.30099944042426
C         6.16722465365142    1.56394424353603   -2.20295574748676
H         5.14944151856684    1.45071479353054   -1.82533137291769
H         6.50886119753640    0.64386637123404   -2.66936696401796
H         6.18748281644484    2.38758460887637   -2.91949534930498
Cl       11.44935189532198   -1.99502283783411    1.20834068911649
Cl        8.73759872452142   -1.33790328243940    2.60005279165322
N        12.09062955123320    1.03930105369253    1.54143539167382
N         9.78553329896915    1.60184105237333    2.59034311995601
O         5.76094821193302    3.50492591522537   -0.42786050544369
O         7.06403659020131    1.82222050895735   -1.13079220514653
Pt       10.50686163081168   -0.12374638651617    1.96557341183578

