32
CSD_code = ZENDII | q = 0 | S = 0 | Stoichiometry = C11H14Cl2N2O2Pt | MND = 4
Pt        3.94938840451696    8.13732899117575    5.89835851316997
Cl        5.15303733174364    6.31536875388902    5.43954788766750
Cl        2.27709602682632    6.80433507901289    6.56648370247983
N         5.40975403125044    9.42281025677485    5.40687038204661
N         2.99312156562946    9.83078351078107    6.26185081523318
C         1.60254802778674    9.96335706071430    6.60796832612982
H         1.38474777599576   10.99035909349721    6.92363739774672
H         1.38039533539889    9.25865743783210    7.41316105534541
C         6.62685340940831    9.15123021045986    4.94412915158267
H         6.84804121958975    8.10410559225885    4.78131655304707
C         3.71574518720288   10.88836395464956    6.10312789795848
H         3.31904550064259   11.88466437147443    6.26765151085543
O         1.58952931131738   11.56820612649738    4.29395243593675
C         5.06176563395865   10.71236918924427    5.63788289959740
C         0.73500836376849    9.59635439548730    5.39993409851603
H        -0.31799641821965    9.60454159721840    5.68315586771264
H         0.97992996238393    8.58369929596967    5.06739737545531
C         0.93520848931859   10.55528391082325    4.24773398132886
C         5.95454753660939   11.75978936888969    5.40140702040915
H         5.64238579821431   12.77368338339624    5.59447354252508
C         7.21628094083516   11.47176809682853    4.92161393979856
H         7.92547442809289   12.26197332892342    4.73003158574479
C         7.55700863316013   10.14190677799261    4.68962195017022
H         8.53266451777975    9.87729970127507    4.31605282816516
O         0.29314284815192   10.13325495710465    3.16494499756746
C         0.40594960773088   10.93085662566311    1.98260284323567
H         1.45234756635245   11.23090415378612    1.85863144452660
H        -0.19658414395526   11.83691438073362    2.11366478248264
C        -0.08239123445466   10.11053160369488    0.80409092095334
H         0.52000260814727    9.21258794690057    0.69862237670439
H        -0.00821851812875   10.69862885394963   -0.10588943748491
H        -1.11732974705427    9.81758199310203    0.95637135339234

