93
CSD_code = ZENFIK | q = 0 | S = 0 | Stoichiometry = C51H39OPPd | MND = 5
Pd        1.86243636337123    3.98764141715689    1.89809075960795
P        -0.15201395893261    3.74731638006225    2.97065405976865
O         1.67825330327995    3.82877761892328   -0.79038590230257
C        -1.44064304692952    4.77541388953675    2.20451892220657
C        -1.54545905304823    4.63965857365838    0.81983425447334
C        -2.44482796388867    5.41437331956318    0.11481056230283
C        -3.23110036906566    6.34128548410675    0.78461588526773
C        -3.11264792021303    6.49269011015235    2.15596386186784
C        -2.21774458456175    5.71382065612729    2.87082980558661
C        -0.91210065356681    2.09378066980570    2.83758931212565
C         1.24269342549264    0.93231392168449    2.23675174754978
C         1.82133255132552   -0.10412137436807    1.51835828225398
C         3.25819213826233    0.02611879994510    1.10043134702361
C         3.50639120598725    1.49423089578272    0.74530169058964
C         3.30291578417622    2.27734452659586    2.01726612135546
C         4.31479249001402    3.10309982942241    2.57427276719536
C         4.25032290909894    3.51316480978489    3.88074923355619
C         3.23628894621007    3.02353558954876    4.74394369780541
C         2.21727836642201    2.17791838974176    4.22516826868582
C         1.32967092554669    1.57177680479733    5.13042965426585
C         1.40428032916062    1.82977972860219    6.47644850089802
C         2.36052694010897    2.71626078807041    6.97544825868354
C         3.26347532205113    3.29458843597485    6.12366800967307
C         2.17708911264952    1.93188563396810    2.80304232913620
C         1.07147169052108   -1.23113889856424    1.16027061465799
C        -0.24869831924930   -1.31850280993955    1.49588203781955
C        -0.90719369484026   -0.22277226740647    2.08875363108556
C        -2.29731080731063   -0.27331599260925    2.31901577787592
C        -2.97243649572870    0.82052151191870    2.77981423309687
C        -2.27968779831312    2.01702395708370    2.98796352797680
C        -0.23633806607569    4.20106054179392    4.73110292708600
C        -1.16300403337078    3.71242194404358    5.64402375928883
C        -1.15386138792328    4.17903526818894    6.94590643877663
C        -0.22856196746597    5.13093377111640    7.34371800933250
C         0.70462979746119    5.60980572674053    6.43986844546689
C         0.70414120848998    5.14028284732985    5.14034225395766
C         1.69123871155186    5.91535202747117    1.06934394008292
C         2.87273212610955    5.37769289413806    0.53171227141861
C         2.75786414375264    4.38869385333458   -0.52093290446642
C         3.98555282053886    4.09188806018496   -1.28129967310690
C         3.96732377496760    3.24456174516665   -2.31948108218469
C         5.07564755497852    2.86422571322395   -3.17098270048201
C         6.36627791466070    3.37757539329166   -3.01616841314165
C         7.38951173912878    2.97953324611926   -3.85318292512169
C         7.15138498111363    2.06090601867236   -4.86337414405910
C         5.87783620113277    1.54145217268338   -5.03046091268388
C         4.85298257072213    1.93825050854200   -4.19457097352492
C         1.67856147339658    6.94727440016463    2.10466258982500
C         2.72381603195833    7.06192665804007    3.03017546059571
C         2.68493849907642    8.02295710427084    4.02118675171590
C         1.60086969907368    8.88128383312302    4.12043900100892
C         0.55413895311444    8.77011542331437    3.22012185553586
C         0.59202740124480    7.81716673195531    2.22057074581142
C        -0.17075934568520    0.95121674483817    2.42267603837484
H        -0.89583954241761    3.93111187224335    0.31110576860848
H        -2.52692188234422    5.30878111295338   -0.95706857177706
H        -3.92983626923622    6.95394162285349    0.23360467716230
H        -3.71761862757883    7.22398053373143    2.67270951427958
H        -2.11879609106706    5.83784864690203    3.94056726793186
H         4.88431879675247    4.60517948567209   -0.97007271550947
H         3.45682068607830   -0.61695244642007    0.24188054405401
H         3.92546517958693   -0.27564688212820    1.91582247967076
H         4.51364112033360    1.64587149384929    0.35250760981244
H         2.78006861172755    1.78641814750696   -0.02411419223916
H         5.17315622408944    3.35519416414895    1.95989229590522
H         5.01953773052732    4.14992784350432    4.29601722053847
H         0.59197765267115    0.87297570037867    4.76458844435304
H         0.71655058540640    1.34704824586089    7.15509811822847
H         2.39412948515265    2.92808536608559    8.03397542826877
H         4.02748006570059    3.95824282321605    6.50341698374767
H         1.55996486064647   -2.04005885904908    0.63618910435709
H        -0.81964810886400   -2.20764830333993    1.27147198596647
H        -2.82247610865450   -1.18959423729070    2.09003787914998
H        -4.03964554316008    0.78538654600372    2.94215373458058
H        -2.83760482546544    2.90820415499100    3.24240918894038
H        -1.87916538631856    2.96099266638446    5.34590514769509
H        -1.87390665234259    3.79802119557599    7.65604621233773
H        -0.23187211422366    5.49163164615718    8.36198935668374
H         1.43457115954372    6.34394123459350    6.74713475266143
H         1.44066901530133    5.48824516419002    4.42286580680311
H         6.56904109589090    4.09641347295006   -2.23695450978601
H         8.38117900396289    3.38781799442052   -3.72014859714014
H         7.95421641513086    1.75302953732353   -5.51689110209386
H         5.68562418611899    0.82564785968409   -5.81667653039535
H         3.86057652328460    1.53153631314175   -4.32858161364926
H         3.55986603916167    6.37065318922743    2.98321039784762
H         3.49923045150978    8.09897678272521    4.72805724428431
H         1.57027005143339    9.62862425219693    4.89964953727513
H        -0.29664764921867    9.43170019890292    3.29762715173588
H        -0.22768511402038    7.73335251822026    1.52049259849248
H         3.01300520702832    2.78583179773671   -2.55329998274215
H         3.85084356219999    5.78477800411718    0.77162243593699
H         0.79716226570556    5.86282611387546    0.44076091631827

