42
CSD_code = ZENGAA | q = 0 | S = 0 | Stoichiometry = C16H22AuOPSi | MND = 2
Au        0.24888934809192   -0.81521417272995    2.16769753262730
P         1.63164501845528    0.78473923894414    2.80169076832927
O        -0.99850745606370   -2.24490075210793    1.56557564292009
Si       -1.68638658575538   -3.65492448731850    1.78650499017548
C        -0.40850589574381   -5.07811013726548    1.88751375833488
C        -2.85549202358629   -4.00198476510820    0.31827684864591
C        -2.71302423949796   -3.71632314605689    3.40260483002814
C         2.92442653189274    1.19464827302154    1.57459693792260
C         2.53402557385640    0.45164526045491    4.33779219177701
C         3.72473149618261    1.08619434281385    4.68134897752826
C         4.34525638573071    0.78136174280680    5.87903064528352
C         3.78474165729827   -0.15000767986811    6.73900577114501
C         2.59993558229721   -0.78329784195986    6.40082820237988
C         1.97715090739447   -0.48596346141969    5.20239156838957
C         0.84538974491320    2.40119810904039    3.06411364479451
C        -0.01357411130348    2.83642869679076    2.05803017240222
C        -0.65860126378848    4.05207486633516    2.17644026101857
C        -0.46092339046029    4.83095769763279    3.30653023512206
C         0.37808081713106    4.39095178492176    4.31636099617597
C         1.03223627970389    3.17616687647123    4.20143349214982
H        -0.88808479420068   -6.04586843360980    1.99660413326812
H         0.26252895169966   -4.94759638771859    2.73249310132820
H         0.20339569697369   -5.11410479573014    0.99094611696147
H        -3.35279735149832   -4.96113556945006    0.42567401050707
H        -2.31046784583734   -4.01447358023526   -0.62033659224983
H        -3.62228982723525   -3.23773452267594    0.23998912524853
H        -3.22935781165818   -4.66430584275837    3.51800275249517
H        -3.46243623047740   -2.93032316471719    3.41621773673602
H        -2.08277041320357   -3.57844817719889    4.27738744485784
H         2.43005280806541    1.38306609149831    0.62114070185062
H         3.58664592301208    0.33516725481160    1.46720122331175
H         3.49381050878093    2.07881415242677    1.86290220698980
H         4.16535774439938    1.81726704504525    4.01907871965342
H         5.27024629849460    1.27251323220097    6.14308426590409
H         4.27497054391758   -0.38313290186962    7.67222302684745
H         2.16411431872234   -1.51160249791571    7.06791185010664
H         1.05740610575907   -0.98146858806520    4.91721082905255
H        -0.17661388727777    2.20533380000873    1.19331480642589
H        -1.32163970619576    4.39002772837433    1.39423658561992
H        -0.96880090603728    5.77880171986291    3.40311417021509
H         0.52200794392716    4.99370902323512    5.20096459745556
H         1.68032755332731    2.83005396890775    4.99437172044628

