42
CSD_code = ZENHOS | q = 0 | S = 0 | Stoichiometry = C16H19CdI2N3O | MND = 5
Cd        6.05661107621307    9.42634630115628   13.29930740509337
I         7.78920450494385    7.35895179987707   13.05689503521581
I         4.39417058118527   10.70485735705963   14.97013979781072
C         8.73127992290392   10.98098950336469   14.70780751228032
H         9.49088609428461   10.24494789645873   14.43426913008782
H         8.12535482904218   10.56258289387610   15.52265903029011
N         6.57210445021501   10.46423137526295   11.15089510356188
C         6.35880751907632    9.66915289468836   10.18015710683883
C         7.13756608049827    9.64229684773421    8.91588520616444
C         9.39707539687505   12.26188293723015   15.22892740970723
H        10.30052304483614   12.01504981835263   15.79065189104585
H         9.68719456577134   12.90318382456742   14.38024476921419
O         8.58283804005718   12.97823964239945   16.12314382161093
H         7.67351952576345   13.00347280501684   15.80055514337564
C         4.88509056703315    7.88221441722701    9.23644187880767
H         5.40158473178626    7.95792456545992    8.29230359397888
N         4.64614299354357    8.61444928646075   11.49359790555777
C         8.58402271145128   11.25683290600270   12.27785676258388
H         9.10836343825252   10.30438646592854   12.14515243771230
H         9.32979228604172   12.06606036704171   12.24435677227325
C         8.16128005815043    8.71009187218512    8.77521588697085
H         8.37275742215202    8.02164513330385    9.58036920583079
C         3.64662959228431    7.76406284055127   11.64865627815109
H         3.17739821462617    7.75117606517898   12.62700823745795
N         7.86415467719429   11.19970516287510   13.54452860270416
H         7.36219726769065   12.08199679120509   13.67387939661615
C         7.60889326434168   11.45765051696575   11.10918997955789
H         7.11519207976874   12.43114213572707   11.22022649858997
H         8.17213433058183   11.44790321791956   10.16647562569188
C         5.26347678475364    8.68636456279395   10.31001690760015
C         8.62753721949059    9.56235815920598    6.58027990691402
H         9.20698186889559    9.53140153886881    5.67008236885022
C         6.86437534158892   10.53496002363508    7.88537206843705
H         6.06760511628142   11.25625166019722    7.99963391410286
C         7.60811584869377   10.48970474556237    6.71917364519206
H         7.39063675248756   11.18162561685361    5.91948586348798
C         3.84157302177536    6.98712608153178    9.40594311149420
H         3.53445230211582    6.34818983304797    8.59175963659637
C         8.90389562552685    8.67596148921427    7.60844347960081
H         9.69912434889567    7.95387075777781    7.50417255391573
C         3.20293635810162    6.92693312112073   10.63344797552712
H         2.38582014488061    6.24542476917479   10.80719114348372

