61
CSD_code = ZEPGUZ | q = 0 | S = 0 | Stoichiometry = C21H36ClOPPd | MND = 3
Pd        4.46808843214320    5.72631834327750    4.61891373279847
P         5.23990529827122    7.42635437277614    3.31537417420386
Cl        4.07485305401182    3.67063712823894    5.45436075351224
O         2.04878779541973    6.88163258402160    5.18601965106705
C         3.06220534019617    6.50625322263675    5.68995244889281
C         3.42324554063217    6.47512289278840    7.14590185234178
H         4.50258484783130    6.65081443002924    7.28415860011611
H         3.21777213038939    5.45078616469719    7.48446385874332
C         5.69552604050579    9.14690732961232    4.01058635754428
C         6.83274574909396    6.51693131812338    2.73588614195605
C         2.27976484803047    6.40803551594280   10.21577674437705
H         1.51107444341098    5.78539925691312    9.78099993357830
C         2.92586568596998    7.34909165449278    9.42387983929804
C         2.60863949222181    6.26711785234216   11.55173233668929
H         2.09621149817828    5.53417964904166   12.15746714766676
C         4.02955860868886    7.60409473132057    1.83688610216546
C         4.51635302575769    9.62915005888546    4.86513397028358
H         3.69271931057376   10.01208404171003    4.27516670046941
H         4.84753208837534   10.43114319495272    5.52389914848873
H         4.14619017324133    8.81037294547409    5.48336376738033
C         2.59181843478960    7.47557607715295    7.96661802448199
H         2.80060248534112    8.48946052403040    7.61785120462917
H         1.53438680305210    7.26740843954173    7.79548473188060
C         6.85912686696638    8.94038474354371    4.98489364278972
H         6.64869273269667    8.09816364993189    5.64818436724874
H         6.98286155290201    9.82953428190045    5.60219415028039
H         7.79822665570104    8.77568349838281    4.46558356704212
C         6.07300232954216   10.20486319804010    2.97798234327199
H         6.87728944311611    9.86619732764176    2.33149871863216
H         6.41281013161851   11.10163044011709    3.49599595105705
H         5.22458490222549   10.48518971430058    2.36052237834619
C         3.59205077855761    7.06428773495602   12.11281763488062
H         3.84825184942945    6.95586191943210   13.15634491324680
C         2.93399502988475    8.59071222267648    2.25387895314425
H         2.51490833181750    8.30499002946744    3.21758481997938
H         2.12907394196449    8.56503433634235    1.52012724634812
H         3.29763095465700    9.61264595350480    2.29362481874899
C         7.55521574375417    5.98017062679545    3.98490382774751
H         8.12453057416272    6.73887305755668    4.51021308146472
H         8.25636103757081    5.20060342553596    3.68630565218068
H         6.83450686269031    5.52483389873503    4.69088269406079
C         3.32171022525048    6.24891917790068    1.64842450160775
H         3.90096108429121    5.54918846366335    1.05365608029011
H         2.37835313740329    6.40696033221882    1.12760899641504
H         3.08173997897987    5.78333986625463    2.62331127106091
C         6.35621590322536    5.26751486053020    1.98256791854166
H         5.59013468691878    4.73419441373212    2.57005324056283
H         7.19381457230391    4.58410149945976    1.83942097138415
H         5.96323665793452    5.50492303630311    0.99862461499579
C         4.24474327648903    8.00156473499875   11.33082727443742
H         5.01301934123602    8.62633429728488   11.76302768880931
C         3.91434321045964    8.14047762891178    9.99449976267107
H         4.42490520045330    8.87544235678586    9.38751424155314
C         4.64329602583037    8.06424211101491    0.51535363083089
H         5.17503667664592    9.00514231162937    0.62585785946364
H         3.84470977455551    8.21435160042922   -0.21095831528228
H         5.32444746142068    7.32545301860860    0.10195920843089
C         7.81198812858470    7.30656746416410    1.87136241989526
H         7.32763245855414    7.73360040362856    0.99821240725941
H         8.60084944077360    6.63864763977957    1.52476603267647
H         8.28571191333497    8.10760299588902    2.43309421134857

