62
CSD_code = ZEPPOC | q = 0 | S = 0 | Stoichiometry = C31H22N4O4Zn | MND = 5
Zn        4.13439290758973    6.69739271513227    3.36615300595598
N         2.68502363410407    5.88647216428393    2.02405555882618
N         5.23219389214558    5.17222639502556    2.43184379514970
N         1.91615015371865    1.90074858417546   -0.52385484414747
N         4.55213231161856    1.14312045408940   -0.07509195160712
O         4.35292416788329    8.22448093592726    2.18899386383048
O         5.62913177102061    7.31425102342777    4.44887358974061
O         3.41884896993893    5.29374116695820    4.74685703572516
O         2.70144661952238    7.35082515083707    4.65059184499271
C         4.46865061353053    4.35072453181543    1.71031869067290
C         6.47568179990832    4.83646014400936    2.68984815226605
H         7.03283520546300    5.53763651216750    3.29338998480076
C         7.04866293924025    3.65053281264588    2.22599323059872
H         8.07427393198954    3.41764116136255    2.46525283330474
C         6.28436309827507    2.79195768077752    1.46757988602014
H         6.67108065522476    1.86135853047526    1.08123411876297
C         4.95533227183342    3.13683706431244    1.19492017300197
C         4.07803215562932    2.29174280798719    0.41977780188719
C         3.72801094232186    0.39432088459202   -0.77393038240571
H         4.13066123234468   -0.53024698175854   -1.16367488685284
C         2.40167862177584    0.77564828316525   -1.00005656084341
H         1.72117599688870    0.16257131423419   -1.57445421932740
C         2.73768238086217    2.67655371143055    0.19178555568727
C         2.23593854433791    3.91572366574622    0.73649590954877
C         0.91191728710980    4.33502913720110    0.56080156344136
H         0.23953136522721    3.71295184488284   -0.00992059604842
C         0.51243804085530    5.52511740271134    1.12758913883182
H        -0.49959385125750    5.88162939398951    1.01709023809374
C         1.44034599824552    6.27002761489536    1.85856689575805
H         1.17080512746808    7.20222093357536    2.33411030073716
C         3.09579905064279    4.73972033414926    1.48350603044605
C         1.92733284173248    6.01530401910202    6.47369954091490
H         1.67839144206474    4.96365731868173    6.58037879647473
H         1.03001188933148    6.62644006309445    6.44763397256382
H         2.53236327677081    6.32274995263132    7.32411651987873
C         2.73696408426152    6.23118290055920    5.20999936763027
C         3.08058953990571   10.49453299863617    1.15567856249189
H         2.48163988541165    9.60092626740350    1.24803746936225
C         2.64348301597838   11.57045601062112    0.40700418834097
H         1.68731537747252   11.52793555831083   -0.09488581344427
C         3.43270744385186   12.70371950737388    0.29672615202488
H         3.09463285015598   13.54558488881269   -0.29009497837225
C         4.66095094600426   12.75173267247067    0.93533966538076
H         5.28392696334294   13.62954948438143    0.83924546948049
C         5.09463942788855   11.68025438685571    1.69503770270023
H         6.06160193384366   11.72030017942541    2.17364814723105
C         4.30388470003568   10.54170915396500    1.81939903062452
C         4.72248961037948    9.35479826350664    2.61884486834888
C         5.46760603412538    9.57596084056770    3.78092608295608
H         5.66280816971838   10.59252124708917    4.07864380131919
C         5.83907695288099    8.54503978113115    4.64977463394333
C         6.52831944030812    8.90243857355394    5.92189428486035
C         7.40057252852695    9.98148596614932    6.03108049872000
H         7.61773927737080   10.59019806328206    5.16614432627140
C         8.01615583166110   10.26075695724314    7.23785630304043
H         8.69723597502386   11.09647585970869    7.31277293485535
C         7.76519042490735    9.47266011816759    8.34906489375913
H         8.24318212826124    9.69849298632062    9.29140417793448
C         6.90548017641070    8.39100900148375    8.24673973708296
H         6.71232143265812    7.77118922630209    9.11055865489881
C         6.29829846376916    8.10319446709075    7.03941913114040
H         5.63104010047614    7.25992591190865    6.93836612077011

