61
CSD_code = ZEPPES | q = 0 | S = 0 | Stoichiometry = C28H24N4O4Zn | MND = 6
Zn        1.47816097294787    4.73850455139219    4.25954720244120
N         0.87617551686657    4.02095754841783    2.36474633094414
N         2.30200614378660    2.79118013608626    4.26812886456570
N         1.48108507347129    0.30487133219715   -0.57492910642506
N         3.00355213514830   -0.96424728152129    1.40126409007114
O        -0.24273836913778    4.06117295907974    4.97128920108308
O         2.05113169853236    5.16199737526760    6.10219388759365
O         0.79487570218029    6.57017096876297    3.97199958414217
O         3.21521394595428    5.29622154548036    3.44779035855769
C         3.01484330804241    2.23536240672441    5.22039413298542
H         3.11218486810542    2.81530034202796    6.12622540723981
C         3.61399414333383    0.98291025698223    5.08010720022252
H         4.19324228966833    0.56568391065081    5.88888962712111
C         3.45080526953260    0.29702242697567    3.89606453693505
H         3.88667347076994   -0.67576029432168    3.72688358184882
C         2.69533450429662    0.88374426725995    2.87556764365411
C         2.13900316811138    2.15187466396173    3.11272568070775
C         1.35954686132196    2.81304354092066    2.08639660207944
C         0.15846501169212    4.65421755216249    1.46596537928993
H        -0.20232032299487    5.62802864459142    1.76235298507998
C        -0.12359501054333    4.11444248878274    0.21037839788792
H        -0.71915978319039    4.66998032673424   -0.49703980915242
C         0.37379842326702    2.86837123807333   -0.10445266479413
H         0.19499379759111    2.39935452985286   -1.05994289954625
C         1.13793222115987    2.18673180966110    0.84838603482185
C         1.69869448451338    0.87658703571525    0.59284596855378
C         2.47778146580728    0.22760716206640    1.60345642993992
C         2.78847914999936   -1.55494459654029    0.21729844494451
C         2.01188376884722   -0.90687582403332   -0.79165271666362
C         1.80499090064316   -1.55555998457997   -2.02808602947081
H         1.21653382168685   -1.04905636410594   -2.77701331196725
C         2.34625491812479   -2.79008814398278   -2.24444492679217
H         2.19170116788956   -3.29146628409062   -3.18835082483511
C         3.11118646235630   -3.42965546270897   -1.24899262381213
H         3.52420493363947   -4.40634200246902   -1.45324864224697
C         3.33206417285814   -2.83153809419552   -0.04181598790229
H         3.91479106616008   -3.30410502518613    0.73331883347010
C         0.87359082962249    8.90083384179395    4.43055674953860
H         1.01729848762935    9.62156985624012    3.62828783600713
H         1.31898545888363    9.30590937793902    5.33622827424066
H        -0.18974714825882    8.74348187523855    4.59067018329562
C         1.53712451037197    7.58167064001160    4.07202579611510
C         2.91554873565730    7.60171684736835    3.86267135286110
H         3.43364409521256    8.54275676686174    3.96853783791420
C         3.66987510011047    6.45924443205576    3.59129408270469
C         5.17095530135569    6.64627638652140    3.45090651860878
H         5.59239300668791    6.92599291091754    4.41412689628902
H         5.39133425685767    7.43740328186957    2.73829844598150
H         5.62714261783433    5.71685955703402    3.12061457512850
C         1.78635241101722    6.38067153126142    8.12529372796787
H         1.59290158966576    5.88966477679921    9.07644243850670
H         1.29981948323431    7.35332048435148    8.13870868173679
H         2.85682212294143    6.51675610523238    7.99636584547875
C         1.23588869748746    5.54560611409804    6.98140182734219
C        -0.12731251487738    5.25487276125866    7.00635594032320
H        -0.71463304772215    5.63529426556145    7.82824263184030
C        -0.78406093274747    4.55554691073128    5.99205168785249
C        -2.28440525632935    4.37408157486816    6.14607355001829
H        -2.77766133341908    5.33711136296594    6.03519642184175
H        -2.52240497907183    3.97937049500900    7.13041991064338
H        -2.65242284458046    3.69768818191329    5.37968192519755

