91
CSD_code = ZEPVIB | q = 0 | S = 0 | Stoichiometry = C36H50Cl2N2Pd | MND = 4
Pd        4.93482034886138    4.93350600585894    0.00013128455726
Cl        3.29802338109456    3.29856835414720   -0.00088497269910
Cl        6.56315549253992    6.56288320970129    0.00103311843467
N         4.74335656248745    5.13553148048435    1.99296760462417
C         3.82627001155905    5.75215040662813    2.61836742423835
C         2.44120591846303    7.62379552364998    3.04016574959076
C         5.83321131804071    4.44537585459799    2.70857552721583
H         6.35590263965688    3.84803669308989    1.94092838440274
C         5.32324010909382    3.45698916236811    3.73953264285490
C         2.33269447789463    6.64716564678138    4.22617030889982
H         2.17538788913389    7.10087444433077    5.20381470734746
C         4.35030395792514    1.55723562959854    5.53480637063168
H         3.97227849086333    0.82512023912181    6.23302557949366
C         6.85438410389000    5.46147526652285    3.22724516065493
H         7.12122843698087    6.13533002142587    2.41474711362466
H         7.75360489011026    4.94326329207866    3.55013947218130
H         6.46963708854991    6.05073320023534    4.05458029723898
C         2.65391441901857    6.49095280373656    2.00117667229334
C         5.81201121153592    3.39836326377587    5.03833188639867
H         6.57102229590377    4.08864585420260    5.37093337379430
C         1.46156482981192    5.54198041100442    2.28225683264929
H         0.59782083051729    5.85161385145014    1.69511327250781
H         1.70848918447036    4.52152316832610    1.99023814315834
C         4.35262388262853    2.53835529174391    3.34651145940337
H         3.97097931540187    2.56366628209499    2.33563998483636
C         3.63784414649731    5.86030176514216    4.11445431047181
H         4.46672866765148    6.38975277141478    4.58210361476120
H         3.56932740777647    4.87798715662087    4.58118807609578
C         3.86492826036076    1.60186146559602    4.23832379064034
H         3.10729401738755    0.90286502357366    3.91676767133087
C         1.18539914240902    8.46718768197259    2.83557332318805
H         1.02514723524511    9.08709514310321    3.71572695392673
H         0.29674650856690    7.86688914641457    2.67667268880788
H         1.30565487168921    9.12867113633257    1.98046845272869
C         2.76131731415012    6.91778015187593    0.54908810361277
H         3.73421389661904    7.38738110169063    0.35605098064456
H         1.97838246038757    7.63984056637984    0.32443399731554
H         2.60385838406761    6.04653782992744   -0.10117721877268
C         5.32761779500450    2.45378519509767    5.92813924862615
H         5.71730594069530    2.42230485745789    6.93529960874448
C         1.21735965691435    5.68695290005513    3.79385309902317
H         1.29581767654136    4.73324990369306    4.31582032699794
H         0.23239357019138    6.09906494712956    4.00940557187719
C         3.63823918123074    8.57440148310241    3.12069885333594
H         3.64381906072737    9.09459685992156    4.07683326863980
H         3.57305657321135    9.32065913009807    2.33226230658430
H         4.58562466331831    8.05722850347499    2.99771315942881
N         5.13552650036559    4.74325041184516   -1.99295573117207
C         5.75221405275390    3.82627610298002   -2.61843397827723
C         7.62377976649236    2.44123044658316   -3.04016342005650
C         4.44533776484585    5.83316908696294   -2.70851987518429
H         3.84796332627342    6.35590596629708   -1.94092621911492
C         3.45697158534474    5.32321174473933   -3.73948791413614
C         6.64718277793337    2.33269090126098   -4.22619495206125
H         7.10090053117116    2.17537492852373   -5.20383165265955
C         1.55728524609572    4.35023212197017   -5.53481316285205
H         0.82519043733233    3.97219614727731   -6.23305264031763
C         5.46135841842490    6.85432924620328   -3.22739404676657
H         6.13524607950088    7.12129612420598   -2.41501216486646
H         4.94311247227718    7.75352792397531   -3.55027795913973
H         6.05063678654714    6.46958368235175   -4.05471497133320
C         6.49091182130375    2.65389453818679   -2.00119846769457
C         3.39835942305763    5.81197840532131   -5.03829896671791
H         4.08867180209899    6.57095814651637   -5.37091106796615
C         5.54194275060558    1.46152271214792   -2.28224034001509
H         5.85155028508282    0.59777681930497   -1.69508202244515
H         4.52147655027846    1.70844501460865   -1.99024629068487
C         2.53837774066697    4.35255457821018   -3.34646695628255
H         2.56369126370501    3.97092635159652   -2.33554491511210
C         5.86031685417926    3.63784092777903   -4.11451605335341
H         6.38975904601426    4.46674433659467   -4.58212359678118
H         4.87801307706186    3.56931158611718   -4.58127416298912
C         1.60189873655982    3.86485298968936   -4.23831803130477
H         0.90287531211544    3.10723867432382   -3.91677681687310
C         8.46715057305556    1.18541582578941   -2.83553169503896
H         9.08706184584790    1.02517902437165   -3.71568530289681
H         7.86686266785316    0.29674571958853   -2.67664662537438
H         9.12864221138708    1.30566898474950   -1.98043003099255
C         6.91757889865188    2.76146371778644   -0.54907274604040
H         7.38728449346755    3.73431156508713   -0.35608691039904
H         7.63956922522035    1.97848412870488   -0.32432321317328
H         6.04627336679875    2.60422184272532    0.10114694205295
C         2.45382515089605    5.32755609764028   -5.92813595476733
H         2.42236820716188    5.71722856586921   -6.93530607614985
C         5.68697187535114    1.21736145055256   -3.79383956508087
H         4.73327538738884    1.29581243764423   -4.31582191761004
H         6.09906856582857    0.23238454185026   -4.00936867490866
C         8.57438476379925    3.63826415921841   -3.12067357017946
H         9.09460877340995    3.64384250105744   -4.07679349558366
H         9.32061983001918    3.57306727163996   -2.33221315419175
H         8.05719623874171    4.58564217314050   -2.99768921982415

