51
CSD_code = ZEPXUQ | q = 0 | S = 0 | Stoichiometry = C20H26Cl2N2Zn | MND = 4
Zn        0.90568955948891    3.04880518991656    7.65625186285248
Cl        1.57010456205057    2.49154156344896    5.61910828678412
Cl        0.38432758705451    2.10424985430031    9.59005504352610
N        -0.46345797561745    4.68964640374605    7.09071085616298
H        -0.24038979168219    4.83279883248377    6.10500126111849
N         1.95636217400991    4.81841089406231    8.46136597835685
H         1.72160204488655    4.77956371158582    9.45398265158203
C        -1.99554967021468    2.97704264471453    6.38910442748366
C         1.39892838694487    6.04817639299912    7.89987452278165
H         1.79015897463090    6.14050250381579    6.87902160337901
C        -0.13389100636108    5.91079545049206    7.82423804092914
H        -0.52201364181030    5.78727266026534    8.84298552655788
C         3.78890414091009    3.33993553955595    8.94599832928421
C         1.76616127613276    7.29815732287120    8.70722218256003
H         1.39885081151914    7.18201983568887    9.73046916215846
H         2.85092852377963    7.40846621271083    8.74699776446262
C         1.15554378695811    8.54981141461328    8.08503586309543
H         1.41821013356569    9.42315964754017    8.68387843441325
H         1.56696866701482    8.69447296975183    7.08381570306743
C         3.41398908112489    4.66842911901828    8.34690539328807
H         3.94274992143860    5.47857970058791    8.86745558927016
H         3.67468098574067    4.69471860521692    7.28612766646231
C        -2.00752332181363    1.74785698864981    7.03756824323892
H        -2.00252021131087    1.70802145323356    8.11698035611182
C         4.11116011635048    1.96466947976075   10.89447682009425
H         4.14228917024679    1.86240861445530   11.96900084117697
C         3.84289002234393    3.19652078012315   10.32777331067343
H         3.67110855793681    4.05412464137800   10.96456453776488
C        -1.86652010563815    4.25850985814805    7.16728155751038
H        -2.54348663420410    5.01962835068506    6.75566895711272
H        -2.11255075490021    4.09178081851313    8.21878079224642
C         4.01921301588522    2.23317379167808    8.13777216955653
H         4.00384132620495    2.33846039742802    7.06289378623771
C        -0.73463491890880    7.17217933514855    7.19428873297934
H        -0.36135059181064    7.27263304548759    6.17154169212005
H        -1.82136220452301    7.08429527906854    7.15141185564704
C         4.32878274913494    0.86296611113521   10.08453251993086
H         4.52837407230337   -0.10134958134718   10.52758223325318
C        -0.35959349228815    8.41297036587309    7.99818851704498
H        -0.78802558689875    9.29921505483561    7.52784462153801
H        -0.77739598196712    8.33286955866441    9.00401641545621
C        -2.07197788714767    0.61962997352880    4.91945277246690
H        -2.09070842805154   -0.29612970888375    4.34755796457960
C        -2.03484208205582    3.01411032643267    4.99982914816501
H        -2.03357126930303    3.96671602212780    4.48690357453416
C        -2.04659087123316    0.57434900321946    6.30230072577106
H        -2.04975161536800   -0.37631843875631    6.81441772656643
C        -2.07266889468729    1.84177595629676    4.26849355391600
H        -2.09436535051247    1.88171266595878    3.18969984315094
C         4.28892088012534    0.99986646116545    8.70817548598308
H         4.46130176075445    0.14419692650634    8.07259509536532

