96
CSD_code = ZEPXOH | q = 0 | S = 0 | Stoichiometry = C47H46P2Pt | MND = 4
Pt        0.52672018631652    2.51321773713579    2.89198549884069
C        -2.45181147235181    1.55312650201027    0.73288151390473
C        -2.39522379775114    1.72283869475252    2.26460787952716
C        -1.45795714223698    2.91520304117110    2.45004645159329
C        -1.98270188837918    4.29953305085535    2.82423235000783
C        -1.89416763760768    5.08200156054395    1.49863749722465
C        -0.64240050122895    4.49495107039757    0.81565137686245
C        -0.64077485408544    3.04019421960247    1.26507491978750
C        -1.03275370887550    1.94880805130262    0.27927776421160
C        -3.54693763706660    2.40015998556157    0.05449812250105
C        -4.02452433999028    3.69820822475035    0.71681335796873
C        -3.15735295096694    4.95936760858808    0.62510729671241
P         2.77256427017112    2.50380419464895    2.25456773914671
C         3.34114322941950    2.19690231075146    0.54246096125841
C         2.52615258956842    2.69322349918792   -0.47072694863799
C         2.88409651248285    2.54218368606600   -1.79603633514813
C         4.05915754458772    1.88450950637244   -2.12393533204775
C         4.87069447654835    1.38279096640033   -1.12061699608174
C         4.51839024779951    1.53772309980785    0.20910606501504
C         3.24851133190237    4.25462570438176    2.42072528741996
C         4.40294753861798    4.79474615903301    1.86472236471804
C         4.68033513079164    6.14012551362890    2.02739856725700
C         3.81019150157218    6.95244077064351    2.73761273442879
C         2.65278911307562    6.42116221269224    3.28360968888940
C         2.37336121663096    5.07700345624050    3.12251638479689
C         4.07082594664471    1.62702418832166    3.19330757517155
C         5.09473960825202    2.25281892395229    3.89195720744241
C         6.03018250609466    1.49499947849788    4.57403201569237
C         5.94715747187144    0.11335960331396    4.57520429099585
C         4.91127519821452   -0.51654785379970    3.90345969599454
C         3.97686527009737    0.23685808080867    3.22178337989732
P         0.70757224786858    1.82349298327143    5.11324964079171
C        -0.47984172338984    2.30461398356947    6.41984892064384
C        -0.14090008445177    2.53700748214534    7.74744579906029
C        -1.12387927691991    2.87184645420784    8.66283615682343
C        -2.44641989731533    2.97302285163016    8.26577196774495
C        -2.78892196514777    2.74211304095184    6.94278494835333
C        -1.81007043654888    2.41415645370376    6.02541432652706
C         0.35235738200458    0.03893561402681    5.02482705136284
C         0.04828152919359   -0.74115162199857    6.13506872362257
C        -0.22233441828704   -2.08830429391367    5.97584508140183
C        -0.19646129824332   -2.66205336315841    4.71427486362103
C         0.09475345794899   -1.88629374878819    3.60367171472481
C         0.36553660321246   -0.53976830474274    3.76006422958105
C         2.27405165004045    1.89166225221152    6.04975405063885
C         2.78727821132738    3.16325159361177    6.29853323775674
C         3.96783147219366    3.32026808436805    6.99641783297001
C         4.65631687327650    2.20445212354616    7.44586174004699
C         4.16594050287159    0.93797748767248    7.17867321853808
C         2.98310563731902    0.77751621530671    6.47886845069668
H        -2.65103968283533    0.50843297747804    0.46737835782993
H        -1.98650447383427    0.80858265218692    2.70893697910990
H        -3.37965195962965    1.88305042949596    2.70556726052232
H        -1.34543200499187    4.78347769419072    3.57251824701141
H        -2.99316541080902    4.27633328248858    3.23240574826574
H        -1.74624630080688    6.15132823973432    1.68910509469463
H         0.24702815762972    5.04038698413117    1.14955993199278
H        -0.69332871870533    4.58295278171440   -0.27164857269661
H        -1.01483192945968    2.30325124348431   -0.75283622449991
H        -0.36955032903203    1.07907604214177    0.33886645662870
H        -4.43670648624826    1.76727373408123   -0.02540446143690
H        -3.22916650153757    2.62452279827055   -0.96701643310072
H        -4.28196401517790    3.50635524225611    1.75680571938004
H        -4.96413549037718    3.95407160038150    0.21427649440228
H        -2.87302355405242    5.11467052134374   -0.41899980490371
H        -3.81722213137934    5.78946355835785    0.89783962793855
H         1.60519177123075    3.19151123041936   -0.20173676556874
H         2.24669702264669    2.93290272473764   -2.57602945981837
H         4.34092092734568    1.76087838940568   -3.15945019313477
H         5.78731332101168    0.86890378034574   -1.37337222579603
H         5.16155405739032    1.14461730016726    0.98376641086214
H         5.07688446663826    4.16208295574839    1.30309690757967
H         5.57778324293750    6.55967056552371    1.59565717513094
H         4.03203051364368    8.00284152917687    2.85849210998183
H         1.96915811311523    7.05713299580732    3.82757705212163
H         1.45862681803505    4.63728368755694    3.52767546261715
H         5.16448071936658    3.33096177027621    3.90094685444038
H         6.83068705569667    1.98798521740636    5.10658364231591
H         6.68467955640902   -0.47240218046706    5.10413672184028
H         4.83496302266454   -1.59445495400883    3.91209386086773
H         3.16497991077662   -0.24635282433478    2.69291000949941
H         0.88793332514810    2.45802628640574    8.06935056152333
H        -0.85417520864724    3.05225342066564    9.69378240539877
H        -3.20834853139351    3.23414551552299    8.98566540682355
H        -3.81965517560088    2.82243003870019    6.62883896002188
H        -2.06065412729803    2.24529383416642    4.98723257560210
H         0.01982533315837   -0.29069182238713    7.11801003035764
H        -0.45810324857599   -2.69467281726516    6.83873931211140
H        -0.41115566834017   -3.71437164649706    4.59717631742025
H         0.10406629636433   -2.33194935271473    2.61929925948825
H         0.58089254599359    0.09735753625157    2.89871224946956
H         2.24182175165953    4.02905774173798    5.94464127949307
H         4.35305582290693    4.31083617070612    7.19174418046748
H         5.57729140656610    2.32255891269109    7.99782221391166
H         4.70720023414968    0.06688185851025    7.51881112663363
H         2.61110412918114   -0.21515618106686    6.27019780753957

