93
CSD_code = ZEPXIB | q = 0 | S = 0 | Stoichiometry = C46H44P2Pt | MND = 4
Pt        4.57244506629412   -2.37521272264907    5.19780306469249
C         4.73470350354055   -5.15764852507292    2.56208580911992
C         4.36606470779018   -3.68138781498856    2.33024441718109
C         5.24959925150219   -2.97367073865596    3.35378784039162
C         6.53205631986230   -2.34826578330430    2.82225351612522
C         7.49688014798944   -3.53674063461846    2.94749012369879
C         7.15641347161031   -4.07549109718756    4.34909336351154
C         5.63277659947343   -3.94708159721363    4.37500559176899
C         4.84824863560275   -5.22384428885885    4.09245088876253
C         6.07418544786939   -5.56244307109550    1.91960727630446
C         7.23220962982473   -4.54621620607215    1.81511738608593
P         4.44272651508703   -2.40518861160650    7.51387152287448
C         4.92460462284418   -3.84039324205011    8.54293925808436
C         5.72912167054137   -4.80198550321254    7.94283686987518
C         6.19442641943987   -5.88050548384092    8.67241092464998
C         5.85645305902038   -6.00694749844496   10.00940337692497
C         5.05114137054385   -5.05354458838071   10.61157893031776
C         4.58723658080192   -3.97180014846093    9.88576060917628
C         5.73315970345160   -1.23563565381146    8.05851191492073
C         5.89976662749744   -0.81811973836933    9.37345321542628
C         6.91729373998174    0.06319896705931    9.69175150301841
C         7.77669030497461    0.52510189719614    8.70714166681215
C         7.62089749468631    0.10508292032436    7.39594692309395
C         6.60212013292417   -0.77280143981175    7.07491183818179
C         2.94754460040738   -1.82755134503390    8.37758706511640
C         2.72395949740090   -0.48322996261408    8.65364180699680
C         1.51906707382487   -0.07442150131293    9.19459447127644
C         0.52183347537963   -0.99895327324921    9.45510583853706
C         0.72828556645558   -2.33715178095312    9.16066542695160
C         1.92871221372321   -2.74776999387313    8.61604688421679
P         3.12049445378328   -0.61011390880642    4.74798657430725
C         2.80780534159585   -0.47318940570376    2.95325790334751
C         1.69132786363543   -0.99252450079143    2.31178198790717
C         1.58737825164551   -0.91345012816545    0.93319142331457
C         2.59150389544490   -0.31972048192521    0.18882343743306
C         3.70910089817975    0.19922626589449    0.82507261735897
C         3.81799618249045    0.11782491289900    2.19821164031008
C         1.51707284156963   -1.21083009605198    5.36111174838061
C         0.48876385976118   -0.43215595369343    5.87270878924221
C        -0.68308107814299   -1.03462605539121    6.29757611092584
C        -0.83666769887818   -2.40783758274693    6.21509063898050
C         0.19701445775206   -3.19306000885788    5.72819460850534
C         1.37068363908621   -2.59688675740456    5.31318082380100
C         3.11744032860954    1.16662045173295    5.17496791119855
C         4.03695785479187    1.63197945461453    6.10601102190835
C         4.05600585042082    2.96826853043969    6.46442250843188
C         3.15853844778045    3.84976017687950    5.88625362214252
C         2.25213486141790    3.39546762262838    4.94033954847755
C         2.23189523356782    2.06102089940118    4.58030242591615
H         3.96405422113271   -5.83914053020802    2.18222260317308
H         3.29677709969543   -3.53198664377675    2.51276856863997
H         4.57414465853908   -3.34901944065990    1.31265215175142
H         6.87851492515283   -1.51877148023864    3.44799200372338
H         6.43391192615462   -1.98231312032028    1.79970560094034
H         8.54458387031930   -3.22121060856186    2.87273744136065
H         7.65274055436812   -3.46196224912308    5.10792754957633
H         7.48114908756741   -5.10778502502200    4.48737984131142
H         5.35683668766669   -6.12412472184829    4.44064505417455
H         3.85102050207611   -5.20531985598295    4.54510849221471
H         5.87430584898927   -5.89238206939968    0.89566877831737
H         6.43175297795624   -6.44199393184917    2.46250199288000
H         8.13872491556004   -5.14122388589909    1.66896773386919
H         7.09631676493112   -3.96191675192607    0.90100310897686
H         5.97385278709434   -4.69496803325810    6.89401768010896
H         6.81813112318533   -6.62481002791518    8.19885802706242
H         6.21570060869578   -6.84912020228646   10.58281314013899
H         4.78361115895542   -5.15342106087023   11.65395592981289
H         3.95054556762596   -3.23926063905636   10.36204056850669
H         5.23161338806841   -1.17680237514056   10.14310872556099
H         7.04279858856004    0.39157595340182   10.71356886646036
H         8.56924510482986    1.21290040638647    8.96366721997117
H         8.29071511190341    0.46470290731772    6.62837400208601
H         6.45004606539941   -1.11514232597045    6.04713509288080
H         3.49638716975506    0.24442110178061    8.44966359181186
H         1.35788066491355    0.97186080507671    9.41194149862607
H        -0.41739590686797   -0.67731853180920    9.88046821734317
H        -0.05175970366659   -3.05971236495085    9.35216764353970
H         2.09227347653024   -3.79009436160417    8.37473767049183
H         0.90389505078308   -1.46067483942703    2.88632848407392
H         0.71727247874480   -1.32106668676718    0.43846173122789
H         2.50681868159255   -0.26454207143612   -0.88670194172897
H         4.49638126350212    0.65986167640128    0.24569294554764
H         4.69302538911202    0.50458920445030    2.70497354178529
H         0.60215753032531    0.63975184569726    5.94747211207634
H        -1.48254204981128   -0.42576993512429    6.69478612106177
H        -1.75830395144053   -2.86810232508492    6.54031226241158
H         0.08538263473018   -4.26664627451945    5.67874097210476
H         2.20563841852805   -3.19559914778821    4.94649583985536
H         4.74569855553611    0.93788103812432    6.53795888848784
H         4.77373819986748    3.32144184864904    7.19104576310770
H         3.16955522597523    4.89363434114474    6.16409120556621
H         1.56046988046869    4.08701212680504    4.48081625093649
H         1.53504450686899    1.70841328844420    3.83184236251957

