43
CSD_code = ZEQBAY | q = 0 | S = 0 | Stoichiometry = C14H22Cl2N4Zr | MND = 6
Zr        4.63145119662977    9.08912410040019    3.02068520369441
Cl        6.16702609566315   10.87967949054523    2.61664726858638
N         5.28720847051957    8.24965951181320    1.21726299566032
N         6.32524082179474    7.98316205465158    3.64541791238779
C         6.72408716487568    8.07446435385721    1.23029426051661
C         7.09622449518977    7.39283002915387    2.57089999891333
C         6.84311642751331    8.59747866065157    4.68833343457389
C         5.99266961846956    9.14167312688038    5.67541920151012
C         4.66599015320183    8.97145281606515    0.29908263115893
C         5.42369047261944    9.58141247165950   -0.85224344070559
C         8.33399791753602    8.73103621791867    4.88968904153767
H         7.24140153756588    9.04594212214797    1.16819635897173
H         7.05872670387113    7.44103725305131    0.39506461072070
H         6.80533496873456    6.33403273073500    2.51343032287495
H         8.18119722747743    7.45637762241560    2.71754192623024
H         6.46210768893257    9.67765862633197    6.48859603793771
H         4.75057668948229   10.04210815428131   -1.56902359190148
H         6.02356619120023    8.82576965553671   -1.35854830934120
H         6.09787149893079   10.34623468972354   -0.46095749422268
H         8.55032736662461    9.22745340182414    5.83036585247318
H         8.75490453511354    9.32625994692653    4.07925956937314
H         8.81141437329157    7.75205494783405    4.89420061178809
Cl        3.09597133959899   10.87997018150386    3.42416505406555
N         3.97582379371880    8.24959157459045    4.82405981948349
C         2.53894294646519    8.07436618229139    4.81096923912806
C         2.16687156765042    7.39264665664257    3.47037124508656
N         2.93780851635843    7.98298000894671    2.39581795139657
C         2.41990462441688    8.59733562812157    1.35293263655713
C         3.27032762815995    9.14161294194094    0.36585623223276
H         2.80085869162242    9.67756414301372   -0.44733161722800
C         0.92902358138085    8.73098158662112    1.15164563465620
H         0.71268287735618    9.22743245867040    0.21103484470695
H         0.50810656940136    9.32612824572933    1.96208495639489
H         0.45159895583559    7.75203568259974    1.14705635377734
H         2.45782816026219    6.33386664454960    3.52785645275979
H         1.08189838572560    7.45611252559979    3.32370915070741
H         2.02155575739359    9.04580379911044    4.87307348903486
H         2.20434217614930    7.44093420227175    5.64620027097100
C         4.59701936011136    8.97141571216661    5.74222405151554
C         3.83930302987595    9.58160051865504    6.89341118797055
H         4.51245000237378   10.04223207935416    7.61019937144791
H         3.23928486878843    8.82608406936670    7.39971633634937
H         3.16526555212066   10.34650317385138    6.50203293624546

