53
CSD_code = ZEQBOM | q = 0 | S = 0 | Stoichiometry = C16H29Cl2N5Zr | MND = 7
Zr        1.38755630844143    0.22859314856308    3.00602925590044
Cl        1.42396134984417   -1.23486684547548    4.96514350155774
Cl        3.62935735574520   -0.66907211907544    2.63348939008207
N         1.78771442509411    2.05004116113991    1.91264324521014
N        -0.10807419713347    1.53453217143435    3.85936147339287
N        -0.46748897341894   -0.85929362151129    2.76403967607913
N         1.26760716148018   -0.36157251062763    0.92283683942909
N         2.85137430644185    1.35804229171601    4.68146604126490
C         1.66447732292481    3.29613103609580    2.30553060755684
C         0.84104207658323    3.65857806266609    3.37895585132829
C        -0.04186808534540    2.82714287879343    4.07954750262712
C        -1.11490702076719    0.72033640758242    4.51206191897300
C        -1.59004671371801   -0.36797604867363    3.52799272775600
C        -0.28632109081223   -2.14055055344700    2.51634317457465
C         0.70041831127077   -2.54318187333004    1.60370726834143
C         1.37905126326675   -1.66254322051527    0.74782626517216
C         1.77535875015828    0.59713582976039   -0.03030167757555
C         2.53447744464934    1.71166907781212    0.71710277569897
C         2.39477253131433    4.42541878578430    1.60667618178792
C        -0.93905191994024    3.50478886213877    5.09557904310575
C        -1.15648020663623   -3.21580898689073    3.12634052770062
C         2.16001583216617   -2.26393442819857   -0.39857725332530
C         3.96744122961810    2.20987754691129    4.26851170355408
C         2.32815967543269    1.79664642285103    5.97584059549027
H         3.24275414658332    0.41843536468035    4.82981915476261
H         0.82856739850964    4.70532937969702    3.64401443937841
H        -0.67156721950291    0.22840295580267    5.39163103336381
H        -1.99067806439936    1.29633677055321    4.83642956661489
H        -2.11422100106240   -1.14769261235570    4.09528458153524
H        -2.30337320813855    0.08526194182221    2.82022534301829
H         0.84743109014731   -3.60235639979358    1.45586098367111
H         2.44098223379292    0.16200693879996   -0.78639564010153
H         0.91081354168431    1.04713603606437   -0.54518434880936
H         2.66698299012553    2.55939422997639    0.03351172843203
H         3.52636828169446    1.32880542921676    1.00246454646033
H         3.45148707666567    4.18904865065170    1.49185651147374
H         2.30289184363829    5.34705375060989    2.17373888328635
H         1.97138167023164    4.59690727413649    0.61717755277077
H        -0.90919956282470    2.97781168019095    6.04796128094005
H        -1.97019851358815    3.51853258336757    4.74284827664032
H        -0.62661594904834    4.53255194525068    5.25521779429133
H        -0.81434698375080   -4.19838684249044    2.81641037900555
H        -2.19441960241829   -3.09543057181385    2.81739356174019
H        -1.10140598783459   -3.15862984419032    4.21350565325204
H         2.15311377812429   -3.34741517578144   -0.33127072001827
H         3.19435802229925   -1.92273178706866   -0.35733377139788
H         1.72831783302388   -1.97255935545556   -1.35572896123569
H         4.41831797020785    1.79806290991637    3.36464962412604
H         4.74090322571261    2.26560940563333    5.04782496457695
H         3.60334502541676    3.21974453115066    4.07348766430487
H         1.57888796893769    1.08276361026143    6.32063846428748
H         1.87754362458237    2.78479448575900    5.87130824161724
H         3.12393123452743    1.85717923991383    6.73200657632579

