69
CSD_code = ZEQFEI | q = 0 | S = 0 | Stoichiometry = C20H28CoN11O8S | MND = 6
Co        5.70098122295482    2.03456264431164    2.76475979352347
S         3.97406270681488    8.12241546579032    5.66153555904681
O         5.01955434723320   -0.37760840524312    4.01622694846208
O         8.32441995821848    2.82677635968046    1.81879662869669
H         7.68211296363685    3.63369593124566    1.69216999708258
O         6.45995105771027    4.53369256055481    1.74316711877750
O         3.09169306384651    1.25510037727839    3.74752261435432
H         3.73340240392918    0.46090278364288    3.90149407160652
O         5.04933097521396    9.06487316447033    5.72097153765750
O         2.98226373442832    8.13869002694201    6.68902254525728
O        -1.12794758314780    9.06187382232313    2.28734469136554
O         1.66283318993179    9.98373446964054    2.65071824985159
N         5.93254968921384    0.25206128018533    3.36797600695977
N         7.53691664981687    1.84851938573149    2.32995711692929
N         5.47784474931533    3.81315434065043    2.15099014729592
N         3.85858570899995    2.19976018112311    3.14098101633112
N         5.30363225974646    1.38833658864697    1.06715005529872
N         4.47114371269212    1.74019388981136    0.31943390823339
N         3.71808853887972    1.96756575035254   -0.49604083022015
N         6.16403818680470    2.67321364103180    4.74785381743598
H         5.74553373592741    1.97016399239597    5.35636836931510
H         7.17822765138094    2.64085221247017    4.83529314173205
N         3.24298022804313    8.41719479952913    4.15108062229064
H         3.49423009039817    9.30485211322014    3.74000857260155
N         1.53121697996494    6.90813085412427    4.49391023642664
N        -0.61457528142661    7.25895989920122    3.60516734428906
C         7.08812079808247   -0.27196593881979    3.08112677446579
C         8.00464204754354    0.65084555640612    2.46003232875914
C         9.38122147200577    0.24938449267007    2.05411644610169
H         9.89395116510611    1.09806012325236    1.60976654124097
H         9.32649106076933   -0.55894355970224    1.32770752598633
H         9.94565807228464   -0.10695210137035    2.91428433460211
C         7.44993178623184   -1.68439905388012    3.40765799461288
H         6.59049039922393   -2.16307508619839    3.87171676793808
H         8.29618604596666   -1.72500084247096    4.09224151434233
H         7.71402277114641   -2.22696009171055    2.50206969551660
C         4.25604999911663    4.25614981323799    2.20617344798947
C         3.32329541640380    3.31768357937496    2.77468361048498
C         1.88451653904739    3.64883172220718    2.94918034465681
H         1.42523565745948    3.80386525826151    1.97426924941786
H         1.78486661619000    4.56733921912171    3.52435638522656
H         1.37626250916873    2.83358242287315    3.45671204263757
C         3.85869624361398    5.62573037050607    1.76615162860820
H         4.74167069268064    6.13938403060390    1.39279943206150
H         3.43825829490615    6.18924952832131    2.59754291308900
H         3.11627717988644    5.56606105710698    0.97199461152967
C         5.66916587010605    3.96901989806863    5.04899441686145
C         6.43828094087827    5.09026913877993    4.74474869079230
H         7.42691794903444    4.97103488920032    4.32794723121736
C         5.91175215206640    6.35311240666678    4.93640234097500
H         6.47605760802292    7.24111909299057    4.70451684714122
C         4.63416430769202    6.48407518227886    5.44569957225709
C         3.87115961708654    5.38447369522803    5.78371739312176
H         2.88338124385193    5.54172793212600    6.18291334211602
C         4.39158370174882    4.11870936147500    5.58526696081745
H         3.80564702919153    3.24551659829407    5.83182123053578
C         1.93708328863206    8.04785496410684    3.94586847173862
C         0.26648188558144    6.58478654508988    4.30749789960922
H        -0.08271102931140    5.67310295495369    4.77157061879009
C        -0.22196969185586    8.38548201357315    3.01535699662303
C         1.09066607462919    8.85513322664714    3.16030139190959
C        -2.42773338704900    8.49869311295566    2.23768949276293
H        -2.39839527716891    7.50258552394550    1.79277456611418
H        -3.01608176059423    9.17568100606084    1.62239754170268
H        -2.85269584411298    8.42209385636216    3.23984847252854
C         0.87301949345500   10.90734306156785    1.92834416162051
H         0.46621720887668   10.46177728904179    1.01904146717334
H         1.55416486670646   11.71635986598536    1.66788096107768
H         0.05612804857436   11.29750975203683    2.53805706104960

