65
CSD_code = ZEQFIM | q = 0 | S = 0 | Stoichiometry = C19H26CoN11O7S | MND = 6
Co       10.06686326291855    7.81325320184785    6.03025022705799
S         8.20253230175324    2.84786968351440    1.50209443066466
O         7.43931713693967    7.35516533287431    5.16272349872877
O        12.46137243026252    7.91744847792154    4.40660537181575
H        12.74886300470288    8.01573706211219    5.39396596744464
O        12.71113730151264    8.02170528645900    6.93232344270537
O         7.67664725093730    7.64927510789937    7.66302107669791
H         7.39280088463655    7.53376591841429    6.67042283402272
O         9.23893317756433    2.26246079207968    0.71274962528691
O         7.09974234128912    2.03604296758352    1.91563495972762
O        10.50728483435391    6.69564213971483   -3.01507307520902
N         8.65216565704263    7.56219594062575    4.79499535567280
N        11.10515879872724    7.83199731195648    4.45415032254053
N        11.47393471353176    8.07342270497397    7.27478349063820
N         9.01635429743682    7.84940682991631    7.60780971601991
N         9.84747973811426    9.65623581988886    5.92131878972547
N         9.67345306941019   10.32277464749556    4.97182411654568
N         9.50531166277008   11.08770152900744    4.15303926963727
N        10.41053212476510    5.71524587984485    6.21813105589495
H        11.42280225215697    5.62150444888113    6.29798269329946
H         9.97085982795963    5.42289739530021    7.08899536279392
N         7.48443724681619    4.13219836808792    0.64347334509614
H         6.52696733441134    3.96409416609525    0.37136909191289
N         7.60233417970869    5.20402968493696   -1.39680983255159
N         9.50079495028347    5.03685578271597   -0.00141287342569
C         9.01354751810848    7.58437882120453    3.54544624412463
C        10.43216481219303    7.74058378482870    3.35451752201989
C        11.04469363896532    7.74588398430478    1.99945625623085
H        12.12695155898085    7.79673363600518    2.08269153524044
H        10.68815639360882    8.61017234461008    1.44149706871210
H        10.75052145340340    6.84629335629301    1.46272245429311
C         8.05783142966908    7.41539652514137    2.41193508673185
H         8.32231872018003    6.54609607294523    1.81201025064614
H         8.06850945498600    8.29794565477552    1.77424889119956
H         7.05806799757043    7.28133752699845    2.81839723806965
C        11.08414501628044    8.29501417553469    8.49585719722563
C         9.65840583542060    8.18619245781249    8.67759777133491
C         9.00801459807230    8.39871918577740   10.00149236733430
H         9.26693745502572    9.38353784931085   10.38411125618443
H         9.35159607773184    7.65569859923461   10.71981236222311
H         7.92929699708711    8.32372107074382    9.89443305676886
C        12.02787405744479    8.58718085182235    9.61676667844529
H        11.93741125660537    7.84607004619320   10.40959173782673
H        11.82172228433842    9.56898948577435   10.03889218233393
H        13.04319049388196    8.57531563476305    9.22679971904961
C         9.91261452203411    4.96642983391492    5.12036385036463
C        10.72462390558402    4.73126756080416    4.01234549082969
H        11.75221620627994    5.06391661501108    4.01771824947509
C        10.20779160808369    4.08492847000174    2.90433420755651
H        10.79988145521443    3.89177376925325    2.02566046782470
C         8.88904858619419    3.67722387225550    2.91865824509364
C         8.07745136350466    3.88323146756748    4.01767330729161
H         7.05973674701642    3.53094869653528    3.99046774566954
C         8.59115542604745    4.52454115020394    5.12821963920061
H         7.96403474843325    4.71163655669111    5.98673979452150
C         8.22154240972628    4.80716999709369   -0.29378830946320
C         8.31621895374891    5.84391989363736   -2.30703107556666
H         7.76562928725992    6.15545855821373   -3.18361684894987
C         9.67963934919494    6.08203692485543   -2.13837928685572
C        10.21824146063639    5.64911714010459   -0.92124999940401
H        11.26301751173908    5.81712482899118   -0.69930805185396
C         9.96508683628765    7.12638304198519   -4.24475204477051
H         9.55584926440458    6.28820448807712   -4.81630421471236
H        10.79680994611530    7.56626418478615   -4.79166558392177
H         9.18767358339776    7.88173540534499   -4.09583072093720

