73
CSD_code = ZEQHIO | q = 1 | S = 0 | Stoichiometry = C32H32CoN4O4(1+) | MND = 6
Co        1.83879877759743    9.99504020730648    4.75023004541343
O         2.91634486235384    8.87053301341000    3.71985180049785
O         3.21974347211511   10.14037473903087    5.99402877467045
O         4.09115051746982    5.77922793380769    6.80780895370808
O         3.33698708406894   14.99228150947163    5.82978816178858
N         0.43564583679771    9.91044374496993    3.49230716638900
N         0.72170167659303   11.13949201490432    5.75220633288243
N         1.22394559448442    8.44673997083591    5.68883483034544
N         2.63658694396525   11.51844200749456    3.82251593361569
C         2.44649809920184    7.89897555526480    3.01053646797142
C         3.28806006248716    6.78612416088858    2.77062825437862
H         4.27391618769528    6.81561168393579    3.20740632296041
C         2.86312030052087    5.71118478095687    2.03880158445888
H         3.52152903943633    4.86965709390626    1.88686349917710
C         1.57101283912008    5.68759290248005    1.50703154414624
H         1.22640585480029    4.82392450898651    0.96113827985341
C         0.74539080914941    6.76718235238055    1.68001576626001
H        -0.25634792557281    6.72093534281754    1.28192761123829
C         1.15050857362733    7.90298971862286    2.40913614759449
C         0.28628212483224    9.04810001963459    2.52968114564305
C        -0.78732136237218    9.24597618182981    1.49836593683777
H        -0.83189515762834   10.28935822724864    1.19087210669616
H        -1.76223004275099    8.97661727288902    1.90625761968139
H        -0.60064999341950    8.64342615475364    0.61673630366903
C        -0.47990681714052   11.03027016441138    3.60127637240365
H        -1.51242662104017   10.67100509538305    3.52400550453153
H        -0.31243323444698   11.72907421003042    2.77171531535390
C        -0.29631645809911   11.77326645173364    4.93842568683957
H        -0.01830541171082   12.81690818121053    4.74282158866847
H        -1.24889502267738   11.78527218847512    5.48016800634583
C         0.04863659749040   12.62591178313443    7.55324197535581
H        -0.97963383925236   12.30056120659845    7.71494773907996
H         0.02890352195548   13.46356215213592    6.85712336255229
H         0.45631054310570   12.98397341135490    8.49135213286189
C         0.87836459332617   11.51056538326858    6.98984957684419
C         1.87103833212309   10.89706929290156    7.83264175505584
C         1.75034091199192   10.93641530144103    9.23546502381850
H         0.85696335385732   11.34747247342953    9.67955962861859
C         2.71407851899292   10.41405198216284   10.05741973378639
H         2.58582880299040   10.43977631672191   11.12774903148791
C         3.86699436838531    9.85252215645553    9.50268286075776
H         4.63786141057061    9.46107460210515   10.14884805304712
C         4.01290125764920    9.77632750411830    8.14434124579995
H         4.88596986261042    9.32826709582350    7.69644530320061
C         3.01620963475127   10.26082716735299    7.26398774085432
C         2.13122545658234    7.55246656763415    6.07112225441213
H         3.16609409968161    7.74891631942713    5.82005797673053
C         1.82133741321711    6.38995001972515    6.77104739165639
C         0.48944153677752    6.14803418304263    7.09060690050701
H         0.18721637568148    5.26643326058213    7.63261841361237
C        -0.45610531169938    7.07923733376340    6.69062731981816
H        -1.50122864600777    6.93533949144602    6.91443515323547
C        -0.05368576524911    8.20528069159081    5.99765836895330
H        -0.78323975471789    8.93626164188831    5.68241218910836
C         2.96790173412545    5.48404068743593    7.12670143461010
C         2.62613932548493    4.23253192050996    7.87951932997508
H         2.16012945031306    4.48209788328624    8.83054241486804
H         3.53489686501575    3.66640035984080    8.06505628536169
H         1.93489233139411    3.62173629381853    7.30272547840404
C         3.01338346189251   12.59346172226375    4.50604331405174
H         2.73379021170842   12.66574359049423    5.54769433122567
C         3.75575613101747   13.63800634290831    3.96345628856195
C         4.14794465448522   13.54653390164616    2.63202258522126
H         4.73122063107574   14.32231172739393    2.16155729320847
C         3.74950635982060   12.43020693817741    1.91556665175245
H         4.01957776486973   12.31404412741176    0.87814292391948
C         2.99681648968646   11.44934924564270    2.53888845187046
H         2.68337023791324   10.57667026363105    1.98556169470297
C         4.04030817439218   14.80149362448056    4.86762155156377
C         5.20310003592128   15.66892021455338    4.49709158850161
H         6.07664674108729   15.06385202617239    4.26682371167727
H         5.42573488672328   16.34755199133513    5.31611662340333
H         4.95076062880681   16.25972241181245    3.61754385195051

