27
CSD_code = ZEQHIM | q = 0 | S = 0 | Stoichiometry = C6H12Cl2O4RuS2 | MND = 6
Ru        1.85550189643646    6.63872293945560    2.05021244325718
Cl        3.76922703388645    5.52368700968997    1.33101071588705
Cl        0.96011430430657    4.65516823990375    2.87866076118574
S         0.84169389772726    5.92023716631957    0.05052247988209
S         3.05569790398835    6.78932760368700    4.06995569998842
O        -0.60510477692214    7.88469187395984    3.22096603259988
O         3.12183889893344    9.02433905937133    0.75325671058717
O         0.98590980329724    6.81960551228538   -1.07334660672753
O         2.38218425825881    7.49516660956238    5.13806241668830
C         0.33168509659708    7.45710693395257    2.74540488781252
C         2.61180741705302    8.15511522621729    1.27355744335812
C        -0.93183878932374    5.59400181637890    0.26457702248730
C         1.37873679779043    4.27017213745681   -0.46543372396759
C         3.59446005785630    5.17980856716322    4.69978217688485
C         4.67984441677094    7.56841995139776    3.83994316940215
H        -1.04191961309452    4.91125883787440    1.10070869754331
H        -1.41485938159288    6.54337487403327    0.47415442488921
H        -1.32422148697051    5.16975305491219   -0.65289268586879
H         1.22037525005420    3.60166091604409    0.37469927843836
H         0.79870832072113    3.98371723873292   -1.33508640668030
H         2.43505400445002    4.32692617637199   -0.71054877613596
H         4.14280543566486    4.68787184992727    3.90281042034490
H         4.20694362869670    5.35019444729483    5.57769154936829
H         2.70641021250232    4.60988331970600    4.95633583810870
H         5.19309272913658    7.03161237901615    3.04890913072292
H         4.50826674434312    8.60246622752330    3.55733519354546
H         5.22678593944668    7.52261003167145    4.77505170657973

