96
CSD_code = ZEQKOV | q = 1 | S = 0 | Stoichiometry = C46H43BrN2PRuS2(1+) | MND = 6
Ru        0.04099915375793    2.26971542348016    0.01288194226688
Br        0.73065406578457    2.23511629041738    2.40804306152463
S         2.35281468914508    1.97820477925021   -0.31489960572333
S        -2.22095286967018    2.60844335365684    0.52060332075081
N         0.00709028751884    0.08139899078308    0.20061519394015
N        -0.70193237439746    1.76746957983714   -1.99023952026496
C         1.32521969346084   -0.51884464144879    0.25430467814867
C         1.45537583090172   -1.85914006728665    0.60096388431059
C         2.70265237308026   -2.45328141459149    0.65178501843927
C         3.83807720182697   -1.70848657767263    0.37464920316732
C         3.72507629162970   -0.36793478084644    0.05921002071281
C         2.47040044483771    0.22085002481801   -0.02244990845476
C        -2.11938689545833    2.01487976851057   -2.16045313695811
C        -2.67935364762585    1.94594117539794   -3.43084524766127
C        -4.03897089583341    2.12254536000231   -3.60966139282785
C        -4.85730615239685    2.36781524723243   -2.51821759725531
C        -4.30970827312402    2.46971133704613   -1.25370640947013
C        -2.94522931365435    2.28809722596930   -1.07335103065703
C        -0.78319019234573   -0.43691801339546   -0.92617457534446
C        -0.40172543428248    0.33540253918122   -2.18539121296292
C         2.94879125268119    2.11867454320801   -2.05995103583382
C         5.28937661565523    2.80847051672341   -1.55569047388384
C         6.65482530802712    2.60076701508554   -1.60778592950513
C         7.16404270292019    1.48137082254759   -2.24653766763912
C         6.30348833425736    0.56879404807435   -2.83254205126798
C         4.93531516797969    0.77115187058501   -2.77780233140430
C         4.42025759162963    1.89487366347200   -2.14313618549993
C        -2.97476976569290    1.31612517939988    1.60957974771310
C        -4.47708289154453    2.89406844303080    2.81949257362695
C        -5.73175505038330    3.30911186660443    3.22351556092233
C        -6.85420295895864    2.57995819522047    2.86326746515160
C        -6.71830985409874    1.43603852777074    2.09551822584507
C        -5.46315633493441    1.02129584315062    1.68415837550689
C        -4.33446210397498    1.74392011500703    2.05013690911134
P         0.12532156238127    4.54668898347775   -0.33878398398658
C         2.65757105984587    5.01992158950659    0.55308956370684
C         3.91873989224481    5.58503815227986    0.56783757827569
C         4.30665141160274    6.43752855018290   -0.45477301177492
C         3.42423018184553    6.73634199649578   -1.47980343139400
C         2.15678085686336    6.17960634077990   -1.49782668006044
C         1.77401589696953    5.30352463806137   -0.48777597746400
C        -0.66721686634240    7.07423639888242    0.45082900700557
C        -1.19917472786044    8.01140171921122    1.31362400337422
C        -1.68679047453227    7.61929711293386    2.55175601486367
C        -1.63760126273035    6.28791146043898    2.92611946708539
C        -1.10830598618226    5.34166188846962    2.06495939101568
C        -0.62909570591464    5.73004125592225    0.82100422726560
C        -2.08153976805011    5.32096768974098   -1.86850894192588
C        -2.78957789915914    5.46654911334354   -3.04761559798626
C        -2.18180747164150    5.20134445860791   -4.26379322449940
C        -0.86184579113713    4.78091658371904   -4.29925684189628
C        -0.15272690204398    4.62862416113838   -3.12122761717669
C        -0.74930812931152    4.91781719996255   -1.89416626171235
H        -0.45378352492016   -0.16490163928329    1.08243414491500
H        -0.22274482425215    2.29959600918883   -2.72139328220640
H         0.57450736036639   -2.43430952218582    0.85004469588463
H         2.78822984443733   -3.49242050180850    0.92723876200194
H         4.81387364008353   -2.16323227939956    0.43255290987992
H         4.60394718854467    0.23275739910187   -0.10976037711668
H        -2.04348072386757    1.76181459205801   -4.28543664744555
H        -4.45811011633949    2.07178632583665   -4.60195294308914
H        -5.91824060931865    2.50352346663050   -2.65458403327687
H        -4.92882386175309    2.69652701236822   -0.39992070194235
H        -0.60782033082842   -1.50811636103241   -1.08598890828322
H        -1.84978264223324   -0.29017028953780   -0.72694040977758
H         0.67090337540935    0.21276063330515   -2.36529824556043
H        -0.94520393366130   -0.07145416835242   -3.04703475571010
H         2.39795087973646    1.42125030623243   -2.69034771485503
H         2.69277222774123    3.14869048259840   -2.31489086164357
H         4.88654794970576    3.67784199141967   -1.05549640919027
H         7.32300417952142    3.31391827723206   -1.15010599244218
H         8.23009760340411    1.32072239151286   -2.28723755205908
H         6.69558918039940   -0.30378815468557   -3.33187215663727
H         4.26646125507403    0.05405047934903   -3.23388971547722
H        -3.00001969111453    0.36527627347601    1.07838594178933
H        -2.27863610091475    1.27252312488803    2.45081256851368
H        -3.59867586499119    3.45873681851547    3.09602669461627
H        -5.83501191590403    4.20058302347686    3.82265073603169
H        -7.83337540980201    2.90235590624759    3.18168112938886
H        -7.58948200751475    0.86431585730928    1.81436024831520
H        -5.36147882176267    0.12735938691683    1.08393585854395
H         2.34489184244758    4.36579805285500    1.35620288552193
H         4.59676439477877    5.36295812866192    1.37797912634377
H         5.29276618126649    6.87644002969253   -0.44899602448935
H         3.72000688756156    7.41278062424440   -2.26775226079392
H         1.47146643975406    6.43610068345922   -2.29336277600037
H        -0.28075873331247    7.37761607002789   -0.51290142191917
H        -1.22913542296774    9.05114261738162    1.02428294589784
H        -2.09726533296427    8.35596561513361    3.22540120443979
H        -2.00272689581827    5.98389846441003    3.89543775008175
H        -1.05128985621790    4.30704340458628    2.36899037645861
H        -2.55694362574315    5.52815689230677   -0.91966656381255
H        -3.81899545637296    5.78949408962336   -3.01759872113749
H        -2.73350858442233    5.32277102910016   -5.18306110124850
H        -0.38403266541860    4.57510496909633   -5.24623014397425
H         0.88126464861374    4.30470694466689   -3.15167580977594

