73
CSD_code = ZEQKEO | q = 0 | S = 0 | Stoichiometry = C38H28N2NiO4 | MND = 4
Ni        4.49712188260171    4.83422988491268   -0.00009513654488
O         5.39953321004396    6.27637867739509   -0.66097053681487
O        -1.27058237575135    3.35967795092597    4.17377696451438
N         3.89074048363871    5.91947632567471    1.47831007454700
C         2.88253656884783    5.38585353882292    2.30171479355337
C         4.39539122213438    7.06843313118721    1.84416421569356
H         3.97696989208725    7.50753518323811    2.74844453650952
C         5.35557916733482    7.82943563732206    1.15033609033762
C         5.77418533607929    7.37638090079154   -0.13265365420420
C         0.66076745108282    4.50959310286792    2.54591332762164
H        -0.29754137175377    4.23460573138714    2.13084972546102
C         5.86277825126324    9.07038711589994    1.67718604249510
C         0.87085584903312    4.30169185829840    3.91294521349872
C         7.11206972935313    9.38139872930711   -0.40973431478092
H         7.78377762223286    9.99127664944134   -0.99735172937789
C         1.64605807332861    5.04590256099371    1.74980317401747
H         1.48523786443771    5.20188269119805    0.69141095309607
C         5.55019944201655    9.55695085814784    2.95811856606759
H         4.90472472266220    8.99359808993629    3.61418357796442
C         6.74182633480040    9.84647263201538    0.88204820586604
C         6.65698175634274    8.20598947731671   -0.89787248536846
H         6.94645481493665    7.83988614730773   -1.87138756488519
C        -0.23482896765105    3.70496505924792    4.70022111766803
C         3.09567096169617    5.19284871759292    3.66659023377070
H         4.05886463126241    5.43618816523677    4.09249614721244
C         2.10379640983950    4.65453982011588    4.46092506595559
H         2.30389191231843    4.50298162566761    5.51006959771892
C         7.24882594343309   11.06005990221449    1.37213936844081
H         7.91552313400487   11.63261256757089    0.74323161731482
C         6.05876309942122   10.74737477599964    3.41719260890754
H         5.79792585641291   11.09397751587248    4.40663418175123
C         6.91233419351873   11.51210709053943    2.62182145837450
H         7.30476415632690   12.44641212947815    2.99386847496044
C        -0.01622398563146    3.54590538805973    6.18619140060431
H         0.20135935315318    4.50984413016250    6.64047450283955
H         0.81957629538074    2.87453968517562    6.37128174640473
H        -0.91423839117127    3.13004690626391    6.63578987581190
O         3.59454813418589    3.39211807715017    0.66060760651276
O        10.26573468176274    6.30881989150380   -4.17227108767702
N         5.10372286639313    3.74893187563325   -1.47837550052735
C         6.11219419328031    4.28253810037929   -2.30145289007703
C         4.59901708478187    2.60005841111537   -1.84441074184920
H         5.01752724045932    2.16097118589869   -2.74866341230809
C         3.63858819637246    1.83915612000382   -1.15080017955382
C         3.21986130214677    2.29218718252040    0.13215774663412
C         8.33411377641541    5.15863069910634   -2.54491510226722
H         9.29225233257156    5.43367869435299   -2.12949811340469
C         3.13126928696036    0.59831955037581   -1.67780764891650
C         8.12446230512766    5.36665963632026   -3.91198855068958
C         1.88174304836346    0.28728185969194    0.40896410634258
H         1.20993442099311   -0.32258885873822    0.99648589331645
C         7.34851823726531    4.62238641588742   -1.74913843086217
H         7.50898452789883    4.46635899028849   -0.69069800290285
C         3.44386769889132    0.11184886859407   -2.95877003145745
H         4.08945176561741    0.67519991686822   -3.61473721560936
C         2.25205281325093   -0.17772733728057   -0.88281890519397
C         2.33692025473189    1.46260038150362    0.89723722926535
H         2.04739886973957    1.82866297709317    1.87075381305561
C         9.23042502341863    5.96324577364445   -4.69892761125967
C         5.89949317348700    4.47567727107358   -3.66637115952078
H         4.93642028156074    4.23242882867771   -4.09259912124196
C         6.89163714738654    5.01402551335204   -4.46034490017679
H         6.69187613204319    5.16566022119993   -5.50954664129444
C         1.74492897793947   -1.39120084882796   -1.37306474872288
H         1.07809112506839   -1.96371427629704   -0.74427829406288
C         2.93513840821068   -1.07843556965179   -3.41802573341626
H         3.19599336858148   -1.42497057052189   -4.40748128178546
C         2.08140760801428   -1.84313830669396   -2.62279607480699
H         1.68886688811339   -2.77734740467354   -2.99497038838086
C         9.01285815805314    6.12116708301757   -6.18511756137182
H         8.79521842608760    5.15696271910343   -6.63870209218754
H         8.17740043288995    6.79256224616534   -6.37113799640287
H         9.91121128286427    6.53644432858063   -6.63456441419682

