43
CSD_code = ZEQLAK | q = 1 | S = 0 | Stoichiometry = C17H20IN4Zn(1+) | MND = 5
Zn        3.12450511947440    2.54172774176567    3.27639997055016
I         5.14174019767624    3.62397727808520    2.31376299168681
N         3.00569806780073    0.59584308387363    2.32568625633947
N         1.61746559169724    2.79337646644122    1.80838074764203
N         1.77236383849488    3.35806896279975    4.66508882626918
N         3.83813924637152    1.78931631677731    5.16174671190949
C         2.47062329099535    0.73059027278256    1.10392630054269
C         2.77800319761223   -0.15415202202317    0.07337570546941
H         2.39281764298492   -0.00087554774143   -0.92095035856510
C         3.62245840019063   -1.22275449718506    0.32867445556562
H         3.88469577024311   -1.91075817848399   -0.45971907761523
C         4.11357777442422   -1.39164259759818    1.61239455895106
H         4.75130756478111   -2.22282050672782    1.86465880588486
C         3.78326420497207   -0.44722420413928    2.57206337134850
H         4.15610880761695   -0.53552750920623    3.58265672938587
C         1.56182299536629    1.87687029144100    0.92173703947293
C         0.65182977020340    1.91341302253954   -0.25849057884473
H        -0.31822440691814    2.32194513620587    0.02060297777714
H         0.50029879776179    0.93006371018196   -0.69035511971369
H         1.07322632940552    2.57276047015368   -1.01918681206108
C         0.78848770678180    3.96525430266467    1.72834464637617
H        -0.26984554128299    3.67241019796640    1.69419033022691
H         1.00773637592402    4.50784501936931    0.80045155157986
C         1.02238647229114    4.88986967934900    2.91802251559949
H         2.06124296850919    5.22546318214304    2.92585729364002
H         0.38833634569315    5.76862982650685    2.79606689301605
C         0.70154354923968    4.22914773802192    4.25628538821253
H         0.55651439448298    5.00510949354111    5.01737298331145
H        -0.23559158445087    3.66180002177913    4.17992981395238
C         1.80636780108817    2.84122892389798    5.83204593861676
C         0.73139644056193    3.00453362669729    6.85215945670960
H         0.85327908228779    3.95837623245437    7.36838120612792
H         0.75107578563852    2.20640895734699    7.58747675766381
H        -0.24691872401457    3.01393217856003    6.37509087785229
C         3.04020534045204    2.11485471880770    6.18410223996120
C         3.42028932139375    1.88035566624335    7.50310348730086
H         2.78656036092143    2.17201465748343    8.32403655088432
C         4.65339983690479    1.29807885553996    7.75538743537691
H         4.96879824750855    1.11224685056266    8.77028863421510
C         5.47609260539653    0.98078496418323    6.68760665979628
H         6.44978002805593    0.54462033435889    6.83872573574758
C         5.02321490340430    1.25313083387812    5.40496200442829
H         5.64652608205886    1.05210604870023    4.54375809740820

