73
CSD_code = ZEQLAL | q = 0 | S = 0 | Stoichiometry = C38H28N2NiO4 | MND = 4
Ni        0.51599494333558    0.48071362890408   12.15560686722348
O         0.11360989832311    1.92394290830902   11.11463092992133
C        -3.31646718292768    0.42376429208327    7.97249869237227
H        -3.44234629035116   -0.54335973286693    8.43419926738944
N        -1.07243220099007   -0.40410671996415   11.50270175928615
C        -4.06178250482428    0.70836889051742    6.85445082173674
H        -4.75451073591064   -0.02734089630150    6.47231752692538
C        -1.60190465160274    1.10268000869755    9.67277266336100
C        -2.40543522849175    1.35285005011779    8.50372633185366
C        -1.77928710564081   -1.55448105352986   13.51657220961359
H        -1.71907215452739   -0.61295676512423   14.04589516487779
C        -1.33994427043929    3.55305457834522    8.30988952319278
H        -1.25396576123876    4.48946272898231    7.77675535138966
C        -1.46520102052522   -1.58612857301451   12.15670814684169
C        -1.76298581522568   -0.06255074289337   10.44687564722760
H        -2.58783242483091   -0.72213518365945   10.18193546979854
C        -0.65811774859645    2.07497273360282   10.10907731881705
C        -2.26955231781879    2.59078970542489    7.82820668814876
C        -0.56939462550508    3.31366940690902    9.39414090971291
H         0.14863695606173    4.03360452673880    9.75715174395715
C        -3.04197145999451    2.85951671275014    6.68749045535845
H        -2.91880018128017    3.81289639809974    6.19386284413470
C        -3.93153183520110    1.93543370327169    6.20382262029130
H        -4.52386818783026    2.14730438282565    5.32654298872981
C        -2.21084122483675   -3.93088067289005   13.48496849803981
C        -1.91050423741871   -3.95333549566860   12.12317709708996
H        -1.94872259968812   -4.87610991323200   11.56572067850840
C        -1.54685631217505   -2.79543386102767   11.46646531042985
H        -1.28673607947332   -2.82530192580155   10.41772866808485
C        -2.14313001367491   -2.71126915442600   14.16611126663439
H        -2.38026203879033   -2.70317248579004   15.21965441972958
C        -2.58795169908260   -5.13709848314609   14.26019611661566
O        -2.80487479484234   -5.08055292900512   15.45133336260528
C        -2.68732597787374   -6.44044615430078   13.50335564122191
H        -2.98616570908361   -7.22900839671510   14.18925092379515
H        -1.72398294383097   -6.69310339983507   13.06554017969351
H        -3.42346146061612   -6.35817526543553   12.70687094491581
O         0.91834966123508   -0.96245912520978   13.19667600391172
C         4.34831930370542    0.53794702171173   16.33882109715945
H         4.47422568526798    1.50503005106278   15.87704238770420
N         2.10447612893110    1.36550011435373   12.80841899117108
C         5.09357742944701    0.25343512332905   17.45693123959450
H         5.78629804508384    0.98916948861491   17.83903072820803
C         2.63383152776199   -0.14110087541058   14.63852567804938
C         3.43729932886514   -0.39117452961373   15.80763617312066
C         2.81132664712411    2.51552255707428   10.79435213735894
H         2.75100969381448    1.57392171726455   10.26517386561806
C         2.37174731677692   -2.59133355808772   16.00164047780116
H         2.28572388095206   -3.52768907441403   16.53485980013144
C         2.49731892080372    2.54739637350201   12.15422947479880
C         2.79500173449304    1.02403019054239   13.86428911410403
H         3.61989540575346    1.68358724246505   14.12915380281562
C         1.69003004833150   -1.11340832579237   14.20227918802896
C         3.30135959506392   -1.62904594334554   16.48326945731214
C         1.60124953028819   -2.35203367568117   14.91733263258058
H         0.88321227497672   -3.07198567789662   14.55436606076156
C         4.07372532563569   -1.89768108715818   17.62404323695645
H         3.95051306851887   -2.85100956416018   18.11775905127202
C         4.96327773496700   -0.97356711688825   18.10766663217105
H         5.55557470364275   -1.18536863376039   18.98498970259445
C         3.24308579011447    4.89188564460806   10.82558588673892
C         2.94280541782977    4.91457142896152   12.18738292332399
H         2.98110057469152    5.83742919172885   12.74469671796705
C         2.57909533026104    3.75679654579635   12.84428750518709
H         2.31902291524126    3.78684148622180   13.89302981430179
C         3.17523424703008    3.67218318852260   10.14462166673119
H         3.41230244814517    3.66391431403568    9.09106571779807
C         3.62032543930191    6.09795265404809   10.05017366312176
O         3.83717946235555    6.04120897230266    8.85903376902086
C         3.72002450268696    7.40136520775541   10.80685732622610
H         4.01901172239365    8.18978858570706   10.12086406563652
H         2.75676171854283    7.65429124324144   11.24469320239811
H         4.45618443738513    7.31901199361971   11.60331575879903

