75
CSD_code = ZEQLUF | q = 0 | S = 0 | Stoichiometry = C30H40ClMoP3 | MND = 6
Mo        0.71649107780705    5.53546387331569   12.66510778686396
Cl       -0.22805022967924    3.95535456752652   14.27140083222710
P         0.73469851251149    3.54711635654527   11.18052975647043
P         0.91359261189102    6.98611780751374   14.66737088382887
P        -1.04099630468171    6.51019918702055   11.79493945320823
C         3.27257053404777    5.17324713352595   10.92309434396873
C         2.17514088713628    6.10267591822784   11.02435018872721
H         1.67174467682233    6.33557084421603   10.08261062863801
C         2.22792603089979    7.10677780350332   12.04336435450968
H         1.76331307873025    8.07691572587791   11.84976415738266
C         3.37555571483159    7.13600045887917   12.91543894799226
C         4.37831189055722    6.22320356583281   12.79455259801225
H         5.21963987204376    6.23895135794580   13.47327703188956
C         4.32608889938119    5.22734916861695   11.78356955406455
H         5.12877697197071    4.50650533273194   11.71425097418033
C         3.13639125172287    4.14962022424314    9.87964329518402
C         1.93816496985450    3.42386639705741    9.79566735470059
C         1.78447000374704    2.51704168416887    8.75058533884730
H         0.87055570687344    1.95345145001709    8.64424969084604
C         2.79096046116028    2.32580192424308    7.81992069545799
H         2.64412522822083    1.62549060000197    7.01060342656011
C         3.98575236468038    3.01668692883684    7.93267010925368
H         4.77768412909491    2.85384839574417    7.21673169118794
C         4.15394092533638    3.92708250230814    8.95852664032624
H         5.07122091701279    4.49173228274112    9.04572756189532
C         3.34740944991068    8.16821054174883   13.95889481084641
C         2.19316835884257    8.30445919655206   14.74560962566431
C         2.14172089959413    9.34165797582956   15.67278234683291
H         1.26388908291924    9.48792456735116   16.28289440700793
C         3.20576748974639   10.21361002278928   15.82564098980000
H         3.13827472472451   11.01821132246947   16.54331372800280
C         4.35708562447254   10.04764291239379   15.07432102073614
H         5.19429720955294   10.71670930221544   15.20728466778314
C         4.42352962018020    9.02939581161280   14.14251810189964
H         5.30561219736508    8.90208976790418   13.53131090577193
C         1.22603442270046    2.00313040165057   12.11829847542152
H         0.48644205722571    1.92660452892275   12.92610034867696
C         1.24783699415397    0.69258226891894   11.34142811751854
H         0.26623528948229    0.43590234790164   10.95033132870440
H         1.55495660124845   -0.10890882563560   12.01251676198399
H         1.95996334830977    0.73283444516168   10.51886875668430
C         2.59342299678093    2.27214937632864   12.74237142500456
H         3.36708236697360    2.32308511533899   11.97579113019956
H         2.85653161451784    1.48298409372556   13.44530285746884
H         2.58317402482275    3.21900738248139   13.28939671064239
C        -0.86817580859518    3.06258477880611   10.37879633071823
H        -0.73493800826673    2.06519015706996    9.94180948359320
C        -1.97131959039496    2.99529962701669   11.42776118307639
H        -1.73275069779711    2.27791626237260   12.21177209938624
H        -2.91154810016332    2.70055781243853   10.96459638113773
H        -2.10751222496963    3.97600069909188   11.88818142630741
C        -1.21643888176209    4.05846545770409    9.27953656656620
H        -1.33095249422348    5.05520746097161    9.71115732696038
H        -2.15724479519997    3.78428184158072    8.80613139555267
H        -0.43959893790580    4.09897695474300    8.51710201240575
C         1.43492105380725    6.00080382471036   16.17150703218578
H         0.66071657499302    5.22923578034364   16.27494857045316
C         1.56197243816232    6.75450597529855   17.48958068368143
H         2.31099123000302    7.54189999777129   17.42367334344391
H         1.87607506834959    6.05649212273082   18.26491840513185
H         0.61536701035129    7.18876905309773   17.80204864593144
C         2.75409150025620    5.31454501295827   15.82434166724553
H         2.66869267622536    4.78365105780894   14.87213109044233
H         3.02148736189609    4.58731891522840   16.58968035187615
H         3.56144938844234    6.04287992276389   15.74382297962723
C        -0.61823242121423    7.86137061709170   15.24595480514771
H        -0.41109726780291    8.27489004253896   16.24073209977392
C        -1.76934322206256    6.86910826331348   15.35686407398669
H        -1.97877816695918    6.43111415294786   14.37880126964487
H        -2.66821331455996    7.37519171836661   15.70525657171265
H        -1.53560434857616    6.06322917205050   16.05119656549712
C        -0.96043997649195    8.99287615589518   14.28465779398978
H        -0.14869499675348    9.71569790464264   14.21397395763983
H        -1.86030480383320    9.50862386414004   14.61434760102265
H        -1.14838080045568    8.58396134822370   13.28949447297054

