110
CSD_code = ZEQMIU | q = 0 | S = 0 | Stoichiometry = C45H58N2O4Ti | MND = 5
Ti       -0.37756910081846    5.09909343622343    7.54143635940039
O        -1.31266527611885    4.85146933214201    6.00954290244788
N         0.80844029808696    3.18615161740597    5.41475625678860
C         0.85215131711752    3.58758742720193    6.68517436303694
O         0.87051834299805    5.03729005843147    8.83259749623928
N         1.76532079166330    2.87488741749753    7.34526170406658
C         2.39284568254898    1.85351103969885    6.50031402786485
H         2.15006800218212    0.85498655401400    6.87677685714694
H         3.47793300627574    1.98359895010784    6.49861292039705
O        -0.18016208379130    6.84758012499248    7.29192457725708
C         1.77410724352964    2.11935994454054    5.13201546122491
H         2.52030190384524    2.46786358622573    4.41319725300390
H         1.25870023331302    1.24717200100751    4.72122441079284
O        -1.53617514259885    4.20728255806660    8.55724854975324
C         0.02606462783048    3.75713902716044    4.39844126689731
C        -1.03074988135075    4.63536844989882    4.75294493941888
C        -1.76849389718253    5.23017299715023    3.69368679978087
C        -1.43640888997298    4.92515553017706    2.38820302686523
H        -1.99563212124522    5.38628857040365    1.59306147223315
C        -0.41744825126168    4.04046360914034    2.04048489074651
C         0.30153554195187    3.45925514739575    3.06780143024362
H         1.09588200094148    2.77069025220036    2.84031613545586
C        -2.92105776229584    6.17176076052500    4.02407711786714
C        -3.97610097450739    5.37939082509011    4.80586367745715
H        -4.81045016333308    6.02485945105342    5.07167602982583
H        -3.53787226128262    4.98089302571481    5.71625047649479
H        -4.34934162677144    4.55383857705838    4.20118280433899
C        -2.40883057829295    7.34774120227698    4.86801439057031
H        -3.24049688792134    7.98800923721561    5.15720430021892
H        -1.70316409520218    7.94108455082434    4.28716822464323
H        -1.91335156669093    7.00141325548886    5.77599519091053
C        -3.59904282521189    6.75445585805913    2.77808651795070
H        -4.40050410740882    7.42040464322172    3.09196047321769
H        -4.03777812655654    5.97273431253928    2.16171604144246
H        -2.89930072120477    7.33367056227757    2.17948093749321
C        -0.13878197416814    3.75954260911659    0.57114717455101
C         0.23645822710394    5.07279457088844   -0.13006705276647
H         0.45463134708437    4.89027202928178   -1.18043799368976
H         1.11776928352008    5.50932033428172    0.33530726815999
H        -0.57139060399543    5.79617641468178   -0.07113271479877
C        -1.39816510905381    3.16787773409203   -0.07713074945949
H        -1.21367675778655    2.94570034063950   -1.12633533349463
H        -2.23401691419134    3.85863042376065   -0.01719438872447
H        -1.68168980252728    2.24671438216503    0.42739354098905
C         1.00996580445009    2.76775531895579    0.36490106319210
H         1.16082930501310    2.60464366334137   -0.70042796658336
H         0.78443177029306    1.80702089526100    0.82203165000854
H         1.93953888677352    3.15220736748447    0.77873601636735
C         2.14979003708664    3.05098621277875    8.68184832266166
C         1.63212429815289    4.15086032292152    9.41511426692453
C         1.99819747573873    4.25899628115053   10.78170496988763
C         2.89780110273334    3.35419741705450   11.31783018332020
H         3.17805587160619    3.46260393425569   12.34880668447075
C         3.45089712517293    2.31043496451821   10.58504560436216
C         3.04121190062145    2.16289617609192    9.26909518441840
H         3.42250776928457    1.33704253704597    8.69115228726178
C         1.33107945211590    5.32648381446322   11.64442822021699
C         1.85283402976899    5.34788745336628   13.08626667504561
H         1.33066781354188    6.12523650997897   13.64094986314661
H         2.91726216874532    5.57032327961444   13.11757305580812
H         1.66965512631884    4.40198563931471   13.59030140665600
C         1.55923111659368    6.72476347480580   11.05231690316841
H         1.10537122998302    7.47891197462014   11.69340451419231
H         1.11749084544909    6.79762090924686   10.06071354582370
H         2.62647362913897    6.93101888346238   10.98104866236300
C        -0.17198613336902    5.00728750602548   11.68762566482057
H        -0.71672233955489    5.80831530856258   12.18491200652051
H        -0.33759862242792    4.08242293292060   12.23824683786708
H        -0.56653186202153    4.87692915611927   10.67990477574807
C         4.45989853068522    1.33012811705464   11.16707660191230
C         3.87797020795526   -0.08957359662968   11.11523616670278
H         4.57622400323573   -0.79920011503202   11.55464131782522
H         3.67748172054163   -0.39920875033089   10.09329447670714
H         2.94486655220493   -0.13147146694724   11.67247072871107
C         5.75306746884610    1.39073378270705   10.34101476018638
H         6.49770144893962    0.71450321058913   10.75614097943789
H         6.15775367681312    2.40041857114855   10.35393651613601
H         5.57676145613509    1.10739274763210    9.30698047714352
C         4.81568594213321    1.64291529524733   12.62298226997750
H         5.55026290768722    0.92328013539319   12.97958008583807
H         3.93978831468609    1.57249735184500   13.26305468830206
H         5.24676373961416    2.63681834619627   12.71470578682178
C         0.98025906335530    7.54289300020992    7.00755516734804
H         1.41100524359478    7.96687403822584    7.93614546398227
H         0.74257972301697    8.38468286129934    6.32755908565811
C         1.99115588217577    6.63010203745043    6.34849936913959
C         1.85666379552307    6.31035562594687    5.00004161864688
H         1.05275156136571    6.74927373285729    4.42394182473282
C         2.75796001534521    5.45510235565577    4.38892983121921
H         2.65212209181938    5.23019870129425    3.33722361437770
C         3.79180181369901    4.89536517136367    5.12195093613094
H         4.50266546066698    4.23576672247606    4.64272569052492
C         3.92560168608505    5.19781365462943    6.46750158373224
H         4.73229902518290    4.76584445689509    7.04311756317141
C         3.03627172932377    6.06731955331769    7.07595767044932
H         3.16281459661072    6.32245421239401    8.11902072568626
C        -2.89369747500554    4.41361794603578    8.67033909678043
H        -3.23487887026523    4.04377777947378    9.66083736087226
H        -3.43441741234519    3.82781044002988    7.89969849689256
C        -3.28521251569247    5.87334986525878    8.54741178238219
C        -2.41540703918426    6.86480694302106    8.99202808134979
H        -1.47481134099217    6.58461346380415    9.45805234028209
C        -2.75891829302226    8.20118912277679    8.86536341546584
H        -2.07383065630951    8.96463498537511    9.20558298742920
C        -3.97744349959749    8.56010356791518    8.31428915627041
H        -4.24202172382441    9.60268496831027    8.21154219043283
C        -4.86239522092856    7.57632079551248    7.90604219872305
H        -5.82205068475445    7.85048377935450    7.49083386405921
C        -4.51912342447693    6.24103885915666    8.02278072069416
H        -5.21475764927753    5.47670306639216    7.70473387592699

