99
CSD_code = ZEQNER | q = 0 | S = 0 | Stoichiometry = C35H52N8O3Ti | MND = 6
Ti        7.87495799042694   15.20447546412942    9.48687556420838
O         9.47962862337533   15.85413492044677    9.28464193462970
O         6.28834147578662   14.54269861201750    9.18205277374617
O         7.25451178106638   16.76637240957954    7.75040971883804
N         9.44835939346238   14.41963452472088    6.90203565017594
N         7.52107192944051   13.40523831246619    6.96713559026719
N         8.43156900728774   13.79110890248598   10.67540882316940
N         8.35533336251418   12.70429000042161   10.23886777754515
N         8.32554736128220   11.63541460669965    9.85813867954776
N         7.27277154216186   16.53901709282896   10.75074483915191
N         6.60800703165833   17.46197278650965   10.47860364204734
N         5.97439921404327   18.38137797033732   10.26230127108956
C         8.34314486098851   14.22227461635462    7.62343949957698
C         8.09964655716773   12.92561210094600    5.70581012627430
H         7.43590576662737   13.16337941387343    4.87014411833892
H         8.24578038291163   11.84305171186656    5.75212870838477
C         9.42772662034863   13.67578741825276    5.63616578393896
H        10.28146095673426   12.99545008468004    5.58537703594378
H         9.47175602414603   14.37009012557903    4.79120042629308
C        10.55224401362378   15.19953899344554    7.28008057961895
C        10.54280931553028   15.88202769639813    8.52497761922317
C        11.70738056786736   16.58182545670318    8.91856334506119
C        12.78488087582517   16.63614575197570    8.05049406277206
H        13.66081511433949   17.17718953033509    8.35455412767911
C        12.78243541670631   16.01836415840891    6.80527580577225
C        11.65836465065913   15.29027441878189    6.44507778401982
H        11.64662960562584   14.78013560913271    5.49603653034375
C        11.75224810293243   17.21659704181413   10.30609271511107
C        10.64264408104714   18.26984454754353   10.44602520636614
H        10.74469149086226   18.78947247013670   11.39652355639970
H         9.66084567335648   17.79771542631986   10.42357712510371
H        10.71171671607848   19.00343455557330    9.64341528793277
C        11.55144980396030   16.11626255121755   11.36079057971463
H        11.61484942106563   16.54541175021387   12.35860270984659
H        12.32406682923819   15.35582949549093   11.26076177607646
H        10.57513298061735   15.64047810022491   11.25353849434720
C        13.09124257705973   17.90624839072763   10.59193585525524
H        13.07001810315205   18.32273455801908   11.59678804642532
H        13.27206153636545   18.72253063613228    9.89597897945217
H        13.91710895016917   17.20067008464924   10.54189527126284
C        13.96021340155929   16.09072480651283    5.84336576360861
C        15.11568590889202   16.93563290140933    6.38635785761066
H        15.92001028519299   16.96201943241004    5.65383368978622
H        15.51328979322459   16.51034071742552    7.30441054601359
H        14.79836742829647   17.95862434587197    6.57338688640047
C        14.48962171154713   14.67267849603030    5.58590043679863
H        15.35552678155622   14.70861167988802    4.92818438799254
H        13.73566927732617   14.04482609499548    5.11917067762900
H        14.78647396608253   14.20829683520379    6.52354159461246
C        13.49460727831597   16.71903310262617    4.52187911867482
H        14.32950270320738   16.79720437658554    3.82874671638044
H        13.09933435796711   17.71674388784444    4.70038309100006
H        12.71778275986932   16.12363125335145    4.05001191509762
C         6.26171033876789   12.97139885102942    7.41247483371627
C         5.68039106521566   13.55957940913070    8.56255352721904
C         4.43685356125086   13.06075104175015    9.01956791524891
C         3.81722545714631   12.05909553661274    8.29773624319464
H         2.87141366641666   11.68143380540569    8.64323954607499
C         4.36002000977578   11.50428973711686    7.14050530129361
C         5.59214291803563   11.96784294706566    6.71874577343420
H         6.05266479339466   11.54029605584685    5.84628195364982
C         3.84076042489968   13.61838114447305   10.30892395344993
C         2.52135679516354   12.93570945480689   10.68732637829576
H         2.15090430285923   13.36612025045535   11.61535522334532
H         2.66268305547666   11.86938970757078   10.84677050087040
H         1.76265179194244   13.08982303334015    9.92310676790389
C         3.56364721607526   15.11987922217921   10.14683570142377
H         3.09238250100272   15.51120391638129   11.04586613317336
H         2.89871942000921   15.29383920482972    9.30206417721273
H         4.49133967753693   15.66492770618252    9.98517279664182
C         4.83314769797688   13.39271002765187   11.46159918686417
H         4.38043483495191   13.69638400335573   12.40352258570665
H         5.74725595328192   13.97413521515366   11.32007115362658
H         5.09752174724648   12.33845775890652   11.52687924523879
C         3.59425502878119   10.41254621811923    6.40809690983636
C         4.32688371249134    9.90934536959553    5.16095631058273
H         3.72996836990694    9.13872389700939    4.67743468100989
H         5.28780733658913    9.47272957770954    5.42234561775806
H         4.47931629999428   10.71305046213749    4.44381459690439
C         3.39357238563342    9.22066547229620    7.35413828383723
H         2.88005840409110    8.41262455814329    6.83714757690752
H         2.80231694253125    9.49921573140167    8.22136266230420
H         4.35624503935310    8.85392538143579    7.70278251070984
C         2.23042526661760   10.96372938313660    5.96834408973910
H         1.67035258206589   10.19840625374845    5.43513771754462
H         2.36502607900349   11.81736450681926    5.30715008652268
H         1.64001540570306   11.28482661916513    6.82139492415154
C         7.94907390326774   17.99429276390360    7.49969860399175
H         8.60644726974414   17.85577824367255    6.62671539347769
H         8.56049473084769   18.23168879991698    8.37298135351974
C         6.86723715967715   19.02966749109487    7.21528626028965
H         7.23980008547322   19.87875254192073    6.64812424798842
H         6.43253080971257   19.37254604188950    8.15593760341662
C         5.85158812709188   18.18507515811513    6.45122381084039
H         4.84999241018103   18.60608243244236    6.46705532443168
H         6.16654425819700   18.05260670415176    5.41447960686583
C         5.92469004932250   16.86290229615236    7.21373920096345
H         5.20992237373899   16.85746982289205    8.04529754258037
H         5.74036738145663   15.98735601638691    6.58041608362387

