75
CSD_code = ZEQQAQ | q = 0 | S = 0 | Stoichiometry = C29H40Cl2N2ORu | MND = 5
Ru        2.13718582561389   14.79057110300369    3.88885450226360
Cl        0.72715746394796   16.61401846464041    3.67608583247124
Cl        3.69330293401963   13.22889873391127    3.16980181312731
O         3.86653242222204   16.31907187867229    4.07062843288451
N         0.11039646035574   12.59433628066032    4.46103388386597
N         0.37099452538591   13.30136260964161    2.30842822852262
C         0.68226067951902   13.43442628276853    3.60504169492757
C        -0.76746441189510   11.51173936908159    4.00946901565934
H        -0.78293398883089   10.74251519006338    4.78306591306624
C        -2.15984038693973   12.08041714671673    3.71845427601201
H        -2.45786996545053   12.79427162503604    4.48139645915022
H        -2.90111225032715   11.28220633298424    3.70490136413436
C        -1.99945078949591   12.73093192200929    2.33275432457772
H        -2.77744256379282   12.40489318726007    1.64318396442886
H        -2.04772470333632   13.81860175331290    2.39370683779679
C        -0.59971594245127   12.29836210873810    1.83520109670592
C        -0.55866211144836   12.11626179749761    0.32568393811514
H        -0.85063403217601   13.02761828244663   -0.18883375013817
H        -1.25991423111742   11.33660845280643    0.04231669324323
H         0.43155597270610   11.82139203508991   -0.00980589443542
C        -0.29655299322990   11.00628735348872    2.63649319885564
C        -1.14020125198326    9.80920822088612    2.18739260676652
H        -0.71739139791403    9.36978744317999    1.28747425624386
H        -2.17182075985663   10.07687278218834    1.98437642595880
H        -1.13193736976411    9.04740411910756    2.96442194951182
C         1.17027224907112   10.58595403663865    2.57794827213641
H         1.32766945800125    9.70682276634250    3.19782845027187
H         1.84984839245680   11.36504660500286    2.91128182687391
H         1.43792905403383   10.32313125225889    1.55664150702449
C         1.03821273313217   14.15451725111850    1.34977411148962
H         1.63136798815664   14.91206771881626    1.89053325666340
H         0.30965063033659   14.68715663734333    0.73404255485221
H         1.71329243587145   13.57985137742288    0.70886161422507
C         0.13657808593927   12.78159693925989    5.87448227911662
C        -0.62198407212797   13.78688014282162    6.47537219415986
C        -0.64380654843497   13.86338519485749    7.86462958704006
H        -1.23136953620445   14.64306972197828    8.32807185951022
C         0.07126128866730   12.98507044986976    8.65872594477014
C         0.85730857052837   12.02357909992515    8.03547220469063
H         1.45697411583815   11.35799964522623    8.64012496190665
C         0.90913386663276   11.91321236180220    6.65633036087401
C        -1.37397203104166   14.82646238712150    5.70252371910049
H        -2.44558520693562   14.75323060403685    5.89059165922936
H        -1.18351142275013   14.75883826353771    4.63583688126809
H        -1.04760256604729   15.81348744074008    6.02596505367824
C         0.02351895523553   13.06990953530017   10.15417523919629
H        -0.44059504220546   13.99819666521987   10.47689570120959
H         1.02608939582065   13.01231663806180   10.57400957567541
H        -0.55400042931400   12.23822359594212   10.55796665928519
C         1.84577540858287   10.93682487570615    6.01616297488070
H         2.52096060936092   10.51875469315194    6.75786550999273
H         2.43435119187576   11.44574719293116    5.25421535247739
H         1.30977620550655   10.11636388527422    5.54295569946887
C         2.46438099491959   14.81473757359442    5.76031933075009
H         1.99308140453000   14.20035795700473    6.52600429220060
C         3.39906761494034   15.74922787921684    6.27695381207650
C         3.61098057171833   15.91910916546731    7.65484811577212
H         3.04078758802531   15.30858300552477    8.34010306844732
C         4.51606689760270   16.84575631380923    8.12321386544705
H         4.66725509795669   16.96893876433486    9.18507855724597
C         5.23537940919401   17.62341835656456    7.22759886386261
H         5.94406971952159   18.35216382794853    7.59159099085645
C         5.06029921470291   17.47809168457468    5.85926838431764
H         5.63656556466297   18.10115061868146    5.19310506165812
C         4.14954521494212   16.55170850734015    5.37640146794072
C         4.68385888358757   16.87807839626956    3.04467597640524
H         4.81672147438105   17.95148952313300    3.24304563275616
C         6.02976203729141   16.15729395295381    2.99645083516584
H         6.58087175560842   16.29068387711519    3.92456003986852
H         6.62741396730512   16.53760521909434    2.17253247156638
H         5.85907274494922   15.09171649319616    2.85024329806263
C         3.92174454737896   16.70550470671484    1.73689414678797
H         3.86512317288377   15.64522547108694    1.48711961005051
H         4.43633760999634   17.22173453663641    0.93093165837706
H         2.91915360014881   17.12346271683005    1.83464844558905

