83
CSD_code = ZEQSEV | q = 0 | S = 0 | Stoichiometry = C26H44N6NiO4S2 | MND = 6
Ni        5.13400955723307    9.23158013078914    6.02110440497295
N         4.77589743054698   10.59472245215833    4.92175358999427
C         5.13962615183321   11.22576893769286    4.00008576863200
S         5.57152581140161   12.14833317173096    2.77938882320416
O         3.06224579225255    8.21824266632807    5.71476794467792
N         3.79861110906351    6.34994964494400    4.72916220970968
H         4.66125364193929    6.86954504889920    4.55420675378265
C         2.88807641534781    7.03130033731832    5.40854162993227
C         1.60999288640245    6.32422322964366    5.79991880060870
H         1.17842877281315    5.82930445640734    4.92754989099992
H         0.90506931590773    7.08295205475735    6.14491490867381
C         1.85766769979986    5.29692952948853    6.91221024237749
H         2.54558158782381    5.71486423102335    7.64978013837286
H         0.90980951745265    5.09578799362741    7.41695775819532
C         2.41585667763637    3.97256941807659    6.39776227145702
H         2.48769597488681    3.28138077156139    7.23978652229786
H         1.71875011105070    3.54016480236138    5.67392957606263
C         3.79486582118612    4.09938502628044    5.75509598259385
H         4.16413211418082    3.09960434982723    5.51927469377517
H         4.48807067911968    4.55722294913231    6.46269933006923
C         3.78232627364599    4.93123303830921    4.46874925543960
H         4.67095872918121    4.70604513297949    3.87711787412352
H         2.90161677229760    4.66994397771342    3.86965226302563
O         4.34492409329327   10.31053960913819    7.74158867555635
N         2.57993806976579    9.07132038009951    8.32383597073674
H         2.56747505505690    8.77176454646970    7.34280047824563
C         3.56406739585876    9.90391812257305    8.61571654787382
C         3.70962728984955   10.38757958126412   10.03904834226378
H         4.60365967433886   11.01203500120005   10.08035996739199
H         3.87314171448518    9.52035001910993   10.68304526394324
C         2.49486323853855   11.18161312978987   10.53041607945258
H         2.81081944239161   11.80608353118925   11.36893781662886
H         2.15059223744263   11.84625836559807    9.73497675368728
C         1.34077280541810   10.29985067664566   11.00079012953283
H         1.70165393770544    9.62279079068882   11.77876271300781
H         0.57492022308847   10.93706797509188   11.44906003464048
C         0.70233021619175    9.48072493262933    9.88252173624460
H         0.33526852311011   10.14692026390611    9.09919712206059
H        -0.15247202746008    8.93891128683133   10.29149193924818
C         1.66242104914022    8.46582165303877    9.25776208252934
H         2.22064044977240    7.94652445388753   10.04514669225999
H         1.09167968235201    7.71764436700934    8.70645504277291
N         5.49211216571417    7.86816848916346    7.12012825809204
C         5.12775817208408    7.23736230434241    8.04172506178797
S         4.69605534462026    6.31413930828336    9.26198837797179
O         7.20568031952121   10.24497146707174    6.32740791962446
N         6.46911221515100   12.11330221110568    7.31281296289782
H         5.60652445077010   11.59364631741583    7.48784561957063
C         7.37967563671194   11.43198752159185    6.63341879685208
C         8.65765656682808   12.13916750620734    6.24191182581695
H         9.08921406886712   12.63427977458789    7.11417432686838
H         9.36266070917023   11.38049263929538    5.89696215902520
C         8.40966864538999   13.16626712512350    5.12950958623038
H         7.72168562256922   12.74814896645386    4.39210723576574
H         9.35742616823905   13.36742658674266    4.62458315974131
C         7.85144611619319   14.49065507284044    5.64385178404542
H         7.77944306933320   15.18174702004434    4.80176094091407
H         8.54861711849400   14.92318990024029    6.36754560088446
C         6.47253754843233   14.36379236143457    6.28672844526967
H         6.10326283904308   15.36357128752606    6.52254816124307
H         5.77924902374759   13.90588283200539    5.57925308684700
C         6.48528819871542   13.53203712685013    7.57313469561387
H         5.59670383480438   13.75718855667972    8.16485591064573
H         7.36604520437131   13.79344871970484    8.17210798221448
O         5.92288509944326    8.15256420220700    4.30059843283430
N         7.68804120007061    9.39153594595910    3.71835750902170
H         7.70052490250566    9.69110282950148    4.69938437608602
C         6.70373761314888    8.55915583985518    3.42644699544332
C         6.55800941217381    8.07564617775778    2.00308262638535
H         5.66387369725549    7.45133828914869    1.96176562494247
H         6.39457423406226    8.94297819104358    1.35920344374049
C         7.77259964374271    7.28147964216915    1.51150118457743
H         7.45647473225000    6.65713245148292    0.67295053862027
H         8.11686176855456    6.61671254126245    2.30684299397043
C         8.92675479557996    8.16314842640585    1.04111389731279
H         8.56587920494268    8.84035865898165    0.26326978367817
H         9.69247164138476    7.52588594746657    0.59267498628824
C         9.56544637730596    8.98203799363007    2.15941405091305
H         9.93250437107781    8.31568444641261    2.94260615001659
H        10.42027859841480    9.52378401569600    1.75041455510354
C         8.60557814705753    9.99700026630340    2.78442338717487
H         8.04737585693038   10.51652310953581    1.99717528092277
H         9.17651375198487   10.74498589325995    3.33578826398894

