57
CSD_code = ZEQXAX | q = 0 | S = 0 | Stoichiometry = C28H17F8N3Pt | MND = 4
Pt        1.98915747778317   -0.00526752116883    3.11893784796438
N         1.26920158485952    1.56870458674752    4.11203426864852
N         3.93437784473080    0.76152563919414    2.50977890296909
N         2.73171606784270   -1.62374601240567    2.17243836993038
F        -1.69879064517558   -3.80848994791383    4.20790905858378
F        -2.69109597993554    0.58611626935742    5.43553138891668
F         6.68500407979158    1.19447714709252    1.67911411233868
F         6.66763485938322    1.46236784323968    3.82409528733928
F         7.30663512914390   -0.39353178268745    2.96949620966114
F         4.92951196149329   -4.16942428557876    2.42722574180195
F         4.32133166361218   -3.72547034294319    4.43270119274598
F         2.84677252320884   -4.28024527062697    2.98345892560219
C         6.39937624886238    0.58074132452891    2.83873439140976
C         4.96472955326543    0.06476336189543    2.89470502366377
C         4.83602438921584   -1.28619155884951    3.28514704216817
H         5.64987104156768   -1.75915348815224    3.80870257629099
C         3.79188996099085   -2.08377856168474    2.83186874595048
C         3.96530165398212   -3.56575939037743    3.14665244525159
C         0.28503840375555   -0.80457540986144    3.79828793058620
C        -0.10346416388034   -2.13870254385143    3.75199305407873
H         0.52863618785287   -2.90260543515105    3.32424075851204
C        -1.33394321032523   -2.51622715205110    4.25918328750349
C        -2.21764412367830   -1.60548130333743    4.81258494085986
H        -3.17756174881371   -1.91417208114232    5.19179433457580
C        -1.82227635194194   -0.28570775313444    4.87819791497550
C        -0.58301254396820    0.14083848513649    4.39931322542971
C         1.94380365686438    2.69513792277528    4.32813836541816
H         2.97928490950084    2.71777518567557    4.02033026637533
C         1.38062308992364    3.80907453422397    4.92104236362399
H         1.97415401147177    4.69545384531942    5.07264346900395
C         0.04874725103142    3.75441056229094    5.30342134465501
H        -0.43394257370037    4.60965368186621    5.74983286816175
C        -0.64823738748002    2.57493616971194    5.12160100501228
H        -1.67568409894329    2.50717131229550    5.43293774080834
C        -0.01567554778057    1.47611039565120    4.54052013616614
C         3.86549574469296    1.99602581011036    1.87785309971194
C         4.67976898414767    3.10732896473303    2.10735235126040
H         5.48109846418591    3.07735500823761    2.82659945657467
C         4.42684599078865    4.29543866329515    1.44573404705984
H         5.06282864583528    5.14684857662466    1.63584095139322
C         3.37325050764408    4.40415414881334    0.55494225890620
H         3.19041922848608    5.33620664296814    0.04296246458092
C         2.54551109514167    3.31283930575843    0.33667934644259
H         1.71238601085332    3.39081061336369   -0.34531776791989
C         2.77940990682249    2.12762523837266    0.99945736100552
H         2.14071872221135    1.26068759559310    0.83516644158631
C         2.10037753971701   -2.25813850273396    1.11818678532320
C         0.86482951945788   -1.75265530777751    0.68953866239560
H         0.43252315225234   -0.90939873407658    1.22335165881829
C         0.21156740712194   -2.30489988635175   -0.39057334270461
H        -0.74622077865541   -1.90966037252778   -0.69416724180111
C         0.78671751427221   -3.35148837681515   -1.09604242082641
H         0.27681636989963   -3.78273362928425   -1.94345192871988
C         2.03820021090271   -3.81296543727508   -0.72525821962383
H         2.51503996618408   -4.59802949095910   -1.29240610359793
C         2.69872122363320   -3.27124219716894    0.36016766468725
H         3.69279939988950   -3.61723705898904    0.59128993846795

