58
CSD_code = ZERBUT | q = 0 | S = 0 | Stoichiometry = C22H31ClNNbSi2 | MND = 12
Nb        0.02189369725861    3.17965178506387    4.73302116491160
Cl       -2.26759792852002    3.06585307760321    4.50384902233094
Si       -0.93009262690165    0.70462433845442    7.25386698811849
Si       -0.03102215641067    4.78042745960707    1.53784428826581
N         0.56466065094731    1.99770076048926    3.52313245736899
C         0.98885453096189    1.01660542248553    2.71496488993073
C         2.36184279639598    0.72387955756622    2.60815444724208
C         2.80026459026620   -0.28893592411678    1.78213574318932
C         1.89326364292491   -1.03471122382167    1.04354519498186
C         0.53669709959914   -0.76187110682292    1.14145281760766
C         0.08197014573324    0.24673540885062    1.96374403095361
C        -0.00401103445386    2.32867522198205    7.00296382069115
C        -0.51899612696055    3.64058840547761    7.12049172696213
C         0.49485698228155    4.56109382533708    6.83809857217472
C         1.66209035116354    3.84106220793955    6.50959860620643
C         1.35783501843634    2.46213245063323    6.60542918037036
C        -0.88123445253987   -0.26663921142674    5.60535854749430
C        -0.05520258376545   -0.29296752202001    8.62624650671933
C        -2.73572863011304    1.07314265991093    7.74970111442508
C         0.33359254146077    4.96659575785768    3.41669449843810
C        -0.48001343563966    6.00317141636511    4.05059594146804
C         0.32992996989216    6.95378124461976    4.59655919149573
C         1.68604926468557    6.58600441125487    4.36514190608054
C         1.70695840922281    5.41264810123374    3.67340351539832
C        -0.21180695889598    6.53945285993873    0.80379257056384
C         1.44371190151361    3.90768031742403    0.69025405863486
C        -1.64416135485959    3.79678209023698    1.25318897131709
H         3.05319730869286    1.31937643872243    3.19163159264408
H         3.85693923587924   -0.50198210618193    1.70914336748661
H         2.24197595539530   -1.82492738058782    0.39632869759130
H        -0.17014999505069   -1.34498002844835    0.56947185051135
H        -0.97296341178202    0.46757291510257    2.05388115440717
H        -1.51657724463864    3.88776851328324    7.46224853881278
H         0.42785790864496    5.63505506651231    6.93907253093634
H         2.64964647286108    4.26280064179519    6.36822595009128
H         2.08246838587263    1.65506300421348    6.57634912502614
H         0.13773283218420   -0.35745765499555    5.23028473680734
H        -1.46603619441454    0.24107325393254    4.83770870776609
H        -1.28089620813913   -1.27031669398119    5.71715322866731
H        -0.02429035377346    0.25686385839245    9.56150640490975
H         0.96579403132422   -0.54215771102106    8.35583726051511
H        -0.58319455649225   -1.22228531908069    8.80879827352280
H        -3.24528042031307    1.65628076646340    6.98710654406042
H        -2.79047084010277    1.62227096783334    8.68541918064387
H        -3.29123097904095    0.15004749896743    7.88099957853342
H        -1.56167236328396    6.02163588269244    4.01679738518728
H         0.01531179602898    7.83954663322813    5.12423529091320
H         2.53958627021778    7.15341396728887    4.69772771792513
H         2.57900200097517    4.89313345162506    3.30192212648494
H        -0.23896792527691    6.50623403603620   -0.28007103340013
H         0.62113090742783    7.17107539588821    1.09594753906054
H        -1.12209226817607    7.02340030739615    1.14240522699846
H         1.16798729358522    3.56524589063031   -0.30131377752256
H         1.76687175222047    3.04284874391022    1.26147508437792
H         2.28985372566879    4.57814443038867    0.58067356776005
H        -1.87054757482325    3.71615141553460    0.19501467467662
H        -2.49439431816152    4.27012771232215    1.73640212502147
H        -1.54819552720538    2.79201230998001    1.65938757621454

