93
CSD_code = ZERDOS | q = 0 | S = 0 | Stoichiometry = C42H38B2FeN10 | MND = 6
Fe        4.71734264954387    2.35245957684911    7.92564982577190
N         4.07369365639128    3.82781807889378    9.06526754099773
N         3.42434024754523    3.16689834057671    6.67538010850111
N         3.08010669761880    3.01006128267426    5.40204526927528
N         2.47117629333136    5.02526965181008    6.02140441695130
C         4.37503440335124    4.03234283326922   10.34279271979866
H         4.99799142015618    3.27888693082322   10.80255394147555
C         3.94084411111095    5.13977461871334   11.05026799477685
H         4.21733145286614    5.25807414238682   12.08556434629317
C         3.15022548927170    6.08557473700517   10.41000783950785
H         2.79270852628975    6.95810332619814   10.93474051880937
C         2.82766707722329    5.88866527643632    9.08006576398895
H         2.21264549010932    6.59725864445324    8.54885650601252
C         3.31052506629906    4.75394357974282    8.43383407371016
C         3.05466998435706    4.37989179576794    7.06962067065796
C         2.51549508107392    4.12157972716044    4.99256956985113
C         2.02586724448230    4.32908565328178    3.64161111149202
C         2.07456866706843    5.57279112640002    3.01566638192515
H         2.50050403587471    6.42344874895705    3.52437830670651
C         1.60669996401175    5.71101637492807    1.72187299838884
H         1.64946036630673    6.67689327283223    1.24111212187700
C         1.09340964343105    4.61947220427155    1.04125886515976
H         0.72671861092675    4.73559910088082    0.03229223236031
C         1.06261438197017    3.37608206119228    1.65300066515846
H         0.67415299985886    2.52098419464598    1.12022422234494
C         1.52870826858818    3.22743968533988    2.94436894844007
H         1.51396544243793    2.26658807440595    3.43469414575273
C         1.97922272885432    6.34954090083346    5.98820042422530
C         0.62720529133211    6.57802579270417    5.76546629251902
H        -0.04340946124197    5.74330142241555    5.62469549764130
C         0.15842851835621    7.87671960057765    5.72242542015999
H        -0.89212375181324    8.05776789127657    5.54941156638830
C         1.01990267974118    8.95553600501495    5.89851683615725
C         2.36932461661230    8.70457224705274    6.11757717623643
H         3.05359309676439    9.52934069311770    6.24897017572386
C         2.85767398963856    7.41142083161440    6.16383106978206
H         3.90994297993834    7.21535115477945    6.31571925284424
C         0.48924379417139   10.35464754957119    5.85034987397938
H         1.29104639200411   11.07984908115655    5.95849352947985
H        -0.02022102675514   10.53473400167294    4.90495662599649
H        -0.23302724315474   10.51240056366587    6.65054736474833
N         3.50344465605387    1.12004014893771    8.66503913757998
C         3.21219805968235    0.11585277628210    9.16581078691079
B         3.01571648059375   -1.26677198524795    9.83219953290904
H         1.88294045695112   -1.42844414028543   10.17238555551726
H         3.77391024935037   -1.25894298337143   10.77783587525579
H         3.35355136613908   -2.06917453589242    8.99042230753678
N         5.36157987866725    0.87683127391807    6.78541106245744
N         6.00988846824793    1.53694905420211    9.17606283855940
N         6.35429599620487    1.69341639436687   10.44942374817355
N         6.96037152754894   -0.32277471416994    9.83042486290664
C         5.06193328060744    0.67345296384532    5.50738848369141
H         4.44101797403260    1.42818588380937    5.04696585252132
C         5.49534764195370   -0.43448921121886    4.80015805450630
H         5.22044286793746   -0.55186044106688    3.76433931169467
C         6.28296128977773   -1.38202094029792    5.44150296983690
H         6.63939406816736   -2.25524493634644    4.91717464220219
C         6.60398058634251   -1.18608491510494    6.77195436896917
H         7.21670360488650   -1.89609546678010    7.30391255445587
C         6.12245203830471   -0.05050010358696    7.41769607986146
C         6.37787531709595    0.32330783241681    8.78205077203496
C         6.91726388551107    0.58111759016996   10.85911080415172
C         7.40642545810857    0.37344736367706   12.21023831217271
C         7.35634930270886   -0.86993499410207   12.83671691443700
H         6.92982059563549   -1.72044535726263   12.32824945234315
C         7.82373841805961   -1.00805593920823   14.13070497688403
H         7.77993707535352   -1.97368779558032   14.61186547147634
C         8.33790106522812    0.08326714186460   14.81100888846032
H         8.70422978861614   -0.03279051225823   15.82011521008323
C         8.37012483444789    1.32635170599882   14.19871881538763
H         8.75933989735291    2.18129035342611   14.73120038864390
C         7.90453316930399    1.47487898762166   12.90716118772320
H         7.92036591619812    2.43550646107642   12.41643630358522
C         7.45029233210954   -1.64785050309132    9.86405653820426
C         8.80188217419913   -1.87840853641389   10.08724183829742
H         9.47385355403644   -1.04470972045327   10.22762543603277
C         9.26851922999921   -3.17785410134614   10.13124936483386
H        10.31874616838019   -3.36048610588602   10.30456595331279
C         8.40531402809324   -4.25540066641915    9.95584429852685
C         7.05641817114256   -4.00234455649055    9.73604619551152
H         6.37076411309841   -4.82601599666448    9.60499489987944
C         6.57022849476772   -2.70843015273232    9.68861231764686
H         5.51837385283250   -2.51089597433206    9.53585488657541
C         8.93346383104293   -5.65540973409822   10.00546396158178
H         8.13029963659674   -6.37923640748760    9.89817663675797
H         9.44267795819209   -5.83542067087035   10.95100528806177
H         9.65534418890493   -5.81536730601428    9.20535476286483
N         5.93033967885110    3.58363475608900    7.18298242263004
C         6.22098273009283    4.58460380266982    6.67520478255547
B         6.41634321542937    5.96201961707356    5.99765417090591
H         7.54817251982106    6.12012950750807    5.65243493380142
H         5.65497696762920    5.94666228652892    5.05469644088988
H         6.08150206379748    6.77199272722954    6.83328713632982

