87
CSD_code = ZERDIM | q = 0 | S = 0 | Stoichiometry = C42H32FeN10Se2 | MND = 6
Fe        6.66383851883193   10.63041081540977    5.47740889021476
Se        6.48152575820484   13.62828272466522    2.01017420316179
N         7.09577732990089   11.67312343144201    7.10093601386823
N         8.48611518735023    9.98393538282010    5.78042948832914
N         9.29215686285413    9.07617173911057    5.24188996498102
N        10.09479028752689    9.60483651058831    7.21484986001073
N         7.20504140617298   12.04245877017283    4.32121823461847
C         6.33899177670125   12.60537640448494    7.66597184574758
H         5.41941736473050   12.83802746339222    7.14888713384090
C         6.68202153008482   13.23730308982209    8.84965284817286
H         6.02749103698780   13.98450030359954    9.26854522129744
C         7.87060400388197   12.89459623567978    9.47945224512898
H         8.16869711809210   13.36962852512664   10.40137265927881
C         8.67152006229862   11.92574231501090    8.90310576835648
H         9.60374012233024   11.63463648162345    9.35993843084526
C         8.25226231604778   11.32820703483742    7.71776306937273
C         8.96177153910152   10.32237469785069    6.97339301946479
C        10.25954147574757    8.83320507954332    6.09420760048150
C        11.32802375576877    7.87878278645033    5.85658318052276
C        11.77165606567850    7.69964025395983    4.54602546093988
H        11.31525928340233    8.27987619241501    3.75925565440578
C        12.78119305734127    6.79779073138746    4.27276734920658
H        13.12456903633949    6.66747587624535    3.25739024166756
C        13.35229109208588    6.06116535906824    5.29858562348721
H        14.14327534764483    5.35800521672017    5.08453535233230
C        12.89889022170351    6.21944535712434    6.59765036594985
H        13.32896591846438    5.63345727572726    7.39605166397969
C        11.89002996782194    7.12120600110828    6.88187067764880
H        11.52502364713933    7.21429880675065    7.89293984996947
C        10.91304351785307    9.62682633648990    8.36701004219237
C        12.23701149862548   10.03347300031553    8.26237088170259
H        12.62985747275333   10.34320823910657    7.30536837350510
C        13.03862470503600   10.02930696104138    9.38760641083109
H        14.06863141473398   10.34353221762869    9.30668170855899
C        12.53984596798570    9.62477295847876   10.62183548438301
C        11.21152690729599    9.22298564147269   10.70607130347545
H        10.80755746027716    8.90038222334160   11.65382322359286
C        10.39609265246607    9.21958232083908    9.59017550248006
H         9.36923245691049    8.89096694716436    9.65709103131239
C        13.41815788702740    9.63836883451611   11.83363236885234
H        12.99598829833419    9.02756868719207   12.62716431130129
H        14.41266541382194    9.26901223701390   11.59272347049057
H        13.52273924146334   10.65755259539446   12.20647135058040
C         6.92838093237643   12.68975873929649    3.38746792134441
Se        6.84058977981480    7.63598132912361    8.94872883477347
N         6.23149368424264    9.58647740610746    3.85474063336097
N         4.84103472185110   11.27552636812529    5.17508167411956
N         4.03476221879808   12.18304698487253    5.71366340784280
N         3.23231295195667   11.65435058057015    3.74062697068612
N         6.12285100684186    9.21949163236540    6.63431433309947
C         6.98851407447720    8.65441661822820    3.28950596843465
H         7.90815214455746    8.42204879169280    3.80661061312116
C         6.64570490519858    8.02264503658371    2.10571838184560
H         7.30025001117149    7.27540567364384    1.68690032508444
C         5.45703823862505    8.36515457615627    1.47592849833951
H         5.15905815873000    7.89009691557471    0.55399426423451
C         4.65611818665315    9.33402673444022    2.05219454543316
H         3.72387507469736    9.62497457297414    1.59530914210795
C         5.07517673368603    9.93147737446691    3.23763279536489
C         4.36549713300209   10.93710822732760    3.98206770842800
C         3.06733056482052   12.42585491459506    4.86134426773317
C         1.99836077743066   13.37971431408991    5.09894157578321
C         1.55469993129130   13.55866883670556    6.40951903736649
H         2.01163763890429   12.97883237245810    7.19626938383563
C         0.54456966835518   14.45985399341626    6.68279620189509
H         0.20099153159557   14.58985247807435    7.69812573356078
C        -0.02718541874856   15.19590318451826    5.65692920714763
H        -0.81884071920995   15.89833118314568    5.87087322091236
C         0.42621282551043   15.03779437613249    4.35782795395134
H        -0.00434315829690   15.62340866681739    3.55941044784259
C         1.43576851110975   14.13680642482270    4.07361520444195
H         1.80083547732279   14.04394939245469    3.06255080529891
C         2.41407897342719   11.63186721694331    2.58844438063112
C         1.09052281355989   11.22386149083169    2.69303045706478
H         0.69802551535113   10.91366199558194    3.65002551925925
C         0.28891533996426   11.22729886137758    1.56778952756177
H        -0.74077005481048   10.91201629596970    1.64867165462641
C         0.78726920018703   11.63255162437619    0.33362648587419
C         2.11517972876777   12.03568768204026    0.24943671039678
H         2.51881828546840   12.35871860634793   -0.69831601023273
C         2.93063694468381   12.03969648175215    1.36531316967601
H         3.95718406595010   12.36926667949096    1.29842000462673
C        -0.09102430768209   11.61820942554229   -0.87818172169600
H         0.33023454822800   12.23002706115376   -1.67142009282150
H        -1.08607655149202   11.98597490767122   -0.63708596934031
H        -0.19408532593947   10.59905747957395   -1.25153438550203
C         6.39658725274939    8.57224643041418    7.56891383197718

