69
CSD_code = ZERFAG | q = 0 | S = 0 | Stoichiometry = C30H32FeN2S4 | MND = 6
Fe        1.34234502478521    3.58529094479198    6.16488398729797
S         2.20479713580954    4.48903706403200    4.28623214908872
S         0.42094693664333    2.61797258454434    7.97943442033303
S        -0.32187973548702    5.07120869930675    6.07771303232546
S         3.17692639889600    2.24533303102936    6.45820998775162
N         0.45965984795945    2.31489477216215    5.01346118636584
N         2.26567794998242    4.90138947840152    7.26428143952732
C         1.08976912721622    2.03338029122896    3.87389101529259
C         2.02544241155430    2.97272730570068    3.37602457643428
C         2.76178669456315    2.76844079836203    2.22859022536596
H         3.47134016479126    3.52412012775810    1.92268922938106
C         2.59130214519874    1.61137154130154    1.48920045001434
H         3.16769140607558    1.43852256662661    0.59412455119098
C         1.65455848568223    0.68086240170574    1.92459600039873
H         1.50294929120010   -0.22633499432454    1.35550613497567
C         0.92454141044642    0.87492847142336    3.07309793089752
H         0.22505221795208    0.11200446954765    3.37464267468201
C         1.03152333521967    5.49528613199954    3.31928800584842
H         1.44204552700431    5.61072888275753    2.32064954618245
H         0.94234654120568    6.45908380306087    3.80762710125953
H         0.06900202219224    4.99721492078386    3.28186758892603
C        -0.54541103728195    1.41669546957635    5.52368023142642
H        -1.08750108966499    0.91400969661096    4.71720315496836
H        -1.26717116670007    2.01652800185831    6.08649582384418
C         0.06107680118606    0.41291270312842    6.46455121917800
C         0.61621933980191    0.88079389833991    7.66152280628702
C         1.24329911615082    0.00019805714884    8.52915775743095
H         1.67074721878064    0.34289363851573    9.45665967794267
C         1.32537033467425   -1.34512370309305    8.20912679834050
H         1.81593865581531   -2.02354618375510    8.89093145132922
C         0.77790961669975   -1.81732562338411    7.02983634094614
H         0.83657128292862   -2.86704684693949    6.78479067854717
C         0.15112998300028   -0.93610024565364    6.16355425782455
H        -0.28032343932699   -1.30526661872802    5.24477978897046
C         1.39179079559455    2.85539922000865    9.49054319226934
H         0.92306956376839    2.31724110773201   10.30907724475944
H         1.36793209507618    3.92247932736429    9.69111280589254
H         2.41474996782428    2.53036927163616    9.33066634628577
C         1.48719170040670    5.71777459581101    7.97615896642604
C         0.14052120165124    5.90170749387601    7.57729949749992
C        -0.72102213836627    6.75260231789919    8.23509222291332
H        -1.72593561862898    6.89434957384822    7.86675474776763
C        -0.31078890367548    7.41902534574051    9.37706850820840
H        -0.99266088028588    8.06436749626043    9.90793374432238
C         0.99230735382628    7.23972957167889    9.81953212321572
H         1.32701963100388    7.74460678915307   10.71541705340345
C         1.87058758340153    6.42404291828172    9.14533888746174
H         2.86747096405972    6.30250873990339    9.54048031991024
C        -2.00756257813069    4.50551147896583    6.49080046246581
H        -2.65484395205942    5.37421894232476    6.55539831857071
H        -2.00877422263714    3.95993042082920    7.42887910116831
H        -2.33657567024039    3.87573931739897    5.67148444656363
C         3.67891618022605    4.90054756870475    7.55879180738170
H         3.90808523494388    4.17849113017775    8.36396057290148
H         3.98625072239444    5.89422332628582    7.90084711023855
C         4.53209973804553    4.55193347513945    6.37344395147226
C         4.42889675807621    3.29235043525746    5.77936729925908
C         5.23927213854099    2.94816584951536    4.70945928387358
H         5.16349946347219    1.98083223487610    4.24121895372200
C         6.15079674354162    3.86608641849784    4.21712226507409
H         6.77675810570026    3.59371859859440    3.38044838296703
C         5.44618679427559    5.45670529442803    5.86090018616003
H         5.52516404651068    6.43699681647676    6.30762734812220
C         3.41532153484880    0.69529426886873    5.54105176255106
H         4.41844535857881    0.33050549177282    5.74231025302722
H         3.24945061801444    0.83968822545287    4.47891616037244
H         2.68578962556037   -0.00699969834974    5.93040009630746
C         6.25261021922430    5.12201854696249    4.78603152636229
H         6.95699987050452    5.84035255280515    4.39456383052802

