57
CSD_code = ZERHEL | q = 0 | S = 0 | Stoichiometry = C18H18N12O8Zn | MND = 6
Zn        4.33573029343379   11.01286909882165    0.90056148672493
O         4.79480082216617    9.32380847890682    1.96789792952849
O         4.27678307750314    8.37417507855701    3.79959137241616
O         3.23840557919666   10.13467470171030    3.17817358069904
O        -0.52682388149845   13.06558419152210    0.55527091568225
N         4.57595627610115    9.54798902056737   -0.79585850666171
N         2.40371323422294   10.43762690836601    0.57244686403991
N         1.04279270456620    8.97783722079022   -0.40668255133489
N         0.36467486171315    9.74934863202456    0.44817874664648
N         1.42324274439939   13.87727913250607    1.36441019671693
N         4.08662046038989    9.27750685243877    3.02843312177975
C         3.43453594797206    8.89596838705616   -1.01272105628736
C         3.34612207503813    7.77862943646772   -1.84057042484834
C         4.49825511915934    7.32364696500599   -2.45535368393847
C         5.68650799377168    8.00229736773650   -2.22673155641524
C         5.67022464867604    9.10934475847357   -1.39162431262684
C         2.28006503160223    9.41313154010764   -0.30888802517236
C         1.18854172988250   10.62787902830418    1.05097926136834
C         0.76222158053572   11.65007709253146    2.01560581985006
C         0.47623331664779   12.94924345185832    1.22636388700067
H         2.39156306415674    7.29645308817187   -1.97336243074740
H         4.47279870108093    6.45608698594848   -3.09748613398652
H         6.61016468053065    7.68142911642921   -2.68129963456185
H         6.57724065680126    9.66107239232783   -1.19385918390698
H        -0.63270202516873    9.64312689080877    0.56115966915038
H         2.32420965694322   13.64289780835163    1.77684656456782
H         1.32677896025483   14.74456745555217    0.86116479573069
H         1.55567164499573   11.80207918748076    2.74307841310623
H        -0.15897589590401   11.34128179248915    2.50917318193646
O         3.87670819100359   12.70185539220280    1.96780025230068
O         4.39427356045444   13.65137195495670    3.79964977555052
O         5.43304529440516   11.89109488647846    3.17820363728997
O         9.19834427190295    8.96009361957392    0.55533004817618
N         4.09546723738753   12.47768244698731   -0.79594118821971
N         6.26773184892634   11.58809786272855    0.57238323262342
N         7.62862932987154   13.04786248638415   -0.40681177610800
N         8.30677173635487   12.27635681451866    0.44803696220518
N         7.24824236440485    8.14844214085308    1.36442198902434
N         4.58470311243417   12.74813515907923    3.02845172975220
C         5.23687327702484   13.12973378275670   -1.01278998104401
C         5.32526540281851   14.24709228823687   -1.84061702490188
C         4.17311878952983   14.70207752975342   -2.45537463200242
C         2.98488317619314   14.02338888791257   -2.22677643972205
C         3.00119443542380   12.91630837009700   -1.39171286405980
C         6.39135674622879   12.61257756539217   -0.30897330698990
C         7.48291782781833   11.39784379625241    1.05088017660592
C         7.90923308172947   10.37567437852869    2.01553799180571
C         8.19525011248723    9.07647418492919    1.22636054207009
H         6.27981809666943   14.72927982261824   -1.97341326680004
H         4.19855711817374   15.56965627708703   -3.09748301578827
H         2.06121816552395   14.34425464081709   -2.68132907988288
H         2.09418935217895   12.36455377966610   -1.19396810519292
H         9.30415086940293   12.38258984839175    0.56098943209851
H         6.34727134911291    8.38281355057897    1.77685339494127
H         7.34475676497460    7.28109845125222    0.86128295277319
H         7.11575977747559   10.22368714721847    2.74298952313331
H         8.83041565092224   10.68449087343589    2.50912073390104

