43
CSD_code = ZERJIS | q = 1 | S = 0 | Stoichiometry = C14H24ClIrN3(1+) | MND = 6
Cl        8.29316336192470   10.26982723623331   15.76575550177711
Ir        5.98809576915921   10.81918561893332   15.97842742813274
N         6.45239403594619    9.19466127011663   13.50947531868906
N         6.28623908945666    7.96126559040622   15.25958151797186
N         6.97573311739011    7.25954241428707   14.29914780314797
C         6.42728853576491   11.97397531194565   17.75983835517362
H         7.39678153205768   11.63372760148028   18.11650003907138
C         5.31268967471315   11.79435615478111   18.75999871454565
H         5.31032820223452   12.64747659022843   19.44449927516118
H         5.53259032653562   10.90767886168469   19.35750616877442
C         3.92308378919190   11.63488843344302   18.11196036699548
H         3.30096197645819   11.02717988242020   18.76994091057707
H         3.43449310464821   12.60422264318244   18.01470892797560
C         3.98744806370467   10.97941120538029   16.74823094531361
H         3.47976649735380   10.01851988013335   16.68949212609218
C         6.15773948935234    7.48145760269135   16.60244483986508
H         5.52676729188123    8.18642707041066   17.14047154770489
H         7.13159989921126    7.45178508688672   17.09510407425228
H         5.69889411048249    6.49296895733888   16.62246837893319
C         7.52653444093099    5.96205743361810   14.55437115484734
H         8.04740841743080    5.60210341629736   13.67136157385236
H         6.73633730426701    5.25477116661617   14.81157560153628
H         8.23927250765509    6.01754034331441   15.37926845322191
C         7.72295278482095    7.73303102563167   11.94983997192717
H         7.93722557425106    6.67453305488774   11.84076290485066
H         8.66226032496128    8.28560769520920   11.88678099784400
H         7.09852854519579    8.05292630051407   11.11724270656063
C         6.40610975255593   10.33390213959046   12.63342072523422
H         5.86192191362638   11.12767454667165   13.14194736814735
H         5.90439605162884   10.08252829058180   11.69878643418040
H         7.41665610085561   10.68418559835980   12.42229367326007
C         7.06293100996349    8.03748507396670   13.23059086398041
C         6.00902161141883    9.20491330589733   14.81754701076260
C         4.09241536997605   11.70493501976411   15.55341352417418
H         3.63044911284120   11.26478838489164   14.67025616050887
C         4.20352596646519   13.20939584634021   15.47157225088357
H         3.22582441307149   13.65191347312449   15.68403414835998
H         4.45498225381408   13.47520971419023   14.44291401648180
C         5.26519363152632   13.80199595298511   16.41857354830084
H         5.66834296316718   14.70893889281712   15.96705277361526
H         4.81198600133216   14.08879948030989   17.36747374131717
C         6.40191093322496   12.84401777494996   16.69085731969179
H         7.35365514756026   13.11808865749142   16.24171083630697

