67
CSD_code = ZERWAX | q = 0 | S = 0 | Stoichiometry = C24H40NOY | MND = 12
Y        -0.00237065860133    5.20419835871647    2.46945288584210
O         1.52614093267589    4.04117418159656    4.08318821539048
N        -1.53959784339103    5.13161934476263    3.88294404716484
H        -1.57916178918309    5.82542350790611    4.63152684983717
H        -2.51715825010620    5.00835402479616    3.61047596976625
C         0.81440808066514    7.39199878284301    2.28189407325508
C         2.17486257585376    7.01753454382597    2.66544702973034
C         2.31095796804459    7.19693411907041    4.03538381902881
C         1.08817301631579    7.70679836385943    4.55569589147023
C         0.19252131852599    7.86840794396924    3.51388805932606
C         0.53092256052780    8.10648920827257    0.96476993580574
H         0.85297619551339    9.14903414918979    1.04993085691166
H        -0.53279173325384    8.10991376773226    0.71821055803536
H         1.08106224294093    7.66092066302619    0.13859998940783
C         3.27689400175075    6.73199951439228    1.68140049710640
H         3.75787564910942    7.66571102778240    1.37757636643433
H         2.89563758012454    6.24625658346353    0.78426538378972
H         4.04777864660228    6.09266437551848    2.11133528205633
C         3.54405032031887    6.96904423568162    4.85709005683714
H         3.87609009664568    7.90801612901666    5.30230042883044
H         4.35913927033727    6.58688381156871    4.24661275607338
H         3.36352144349720    6.26470286949342    5.67152737919267
C         0.82029553843550    8.02536889634293    5.99593305535645
H         0.66263764188114    9.09611914859567    6.13301443145267
H         1.65748660679391    7.72641604943527    6.62137908864392
H        -0.07411676519999    7.50933429771272    6.35044632105495
C        -1.13863337144537    8.56327786678407    3.57480252959285
H        -1.02448328495229    9.61447517533753    3.29716168114880
H        -1.54698978702483    8.52947374830461    4.58299599594686
H        -1.86145023905760    8.11155302928999    2.89168358734973
C        -1.07689965211706    4.39299077238764    0.26330083550810
C         0.31348341400829    4.44721671191727   -0.05826572478805
C         0.97553970276654    3.41789426429578    0.67011689614380
C         0.00229952118884    2.72568558805131    1.43432409174849
C        -1.26454531494242    3.31600542886542    1.17942638826888
C        -2.17476521485479    5.14688179434714   -0.44241426403395
H        -2.54879145643754    4.56650845084890   -1.28978252184247
H        -1.81616506090797    6.10116355907682   -0.82770342045199
H        -3.01690766706315    5.34309398780839    0.22308623081042
C         0.90551559675684    5.17631641343837   -1.23459793174209
H         0.86340273688662    4.53795908574869   -2.12182221558383
H         1.95153471442189    5.43339219839748   -1.06997008058959
H         0.35514952149868    6.08735083357839   -1.46339459273349
C         2.40876593737553    3.01652013790080    0.44193443798942
H         2.59654179930232    2.90770620960967   -0.62757402614613
H         2.62275969903944    2.05827584388047    0.91100385578541
H         3.11824512982621    3.75139613144659    0.82937819878872
C         0.18420860251389    1.48165373645515    2.25994943502137
H        -0.35745513123727    0.64893135374670    1.80587773277649
H        -0.20542117590985    1.61671417743589    3.27113812120167
H         1.23239303844375    1.19791479741648    2.33000850010899
C        -2.57856737133329    2.74265436112425    1.63281990860351
H        -2.80467260405262    1.83494525012590    1.06730632226303
H        -3.39292542620531    3.44635504798483    1.47096490727102
H        -2.55288390628242    2.47870077380666    2.69020172201742
C         2.85844441739071    3.50425695974686    4.04249707773834
H         3.55407961750209    4.29204166444041    3.74008570157558
H         2.87227916999093    2.70851241518956    3.29171118886540
C         3.17544629223460    2.96137914686055    5.43888717073774
H         3.74267409826204    3.69373214911818    6.01379329611217
H         3.74566775243747    2.03628216571648    5.39683362096490
C         1.78620631239011    2.77817160041573    6.04561579346106
H         1.34503184070467    1.83892108593508    5.71077278989038
H         1.78865059516574    2.80422177473354    7.13227341721409
C         1.04447339604547    3.95753778316467    5.43226969908100
H        -0.04132292720577    3.83805466242550    5.38303703470953
H         1.28435203804145    4.88916396422496    5.96167738140284

