87
CSD_code = ZESBOQ | q = 0 | S = 0 | Stoichiometry = C38H44Br2N2Ni | MND = 4
C        -1.99177024850204    1.87334244498182    2.44767353057586
C        -2.85707616004561    0.87210081236942    2.85302775921233
H        -2.50777637503848   -0.15026774292910    2.84997677516793
C        -4.14752423341491    1.15698668506865    3.27021877200526
C        -4.57724211107203    2.47606090323610    3.26239075071602
H        -5.58624124442796    2.70784188035268    3.57085799828984
C        -3.74785585047074    3.50957349328217    2.86219769320590
C        -2.44349593256085    3.19689586376125    2.46401359947425
C        -6.39194806754283    0.17585856677274    3.01979779986865
C        -6.42185421658571   -0.14218234836473    1.66494163746533
H        -5.51480927105735   -0.48179334257351    1.18362541936316
C        -7.58771279057050   -0.03060840546973    0.93214974033394
H        -7.59102832142524   -0.28559909958118   -0.11792767778023
C        -8.75139516106436    0.40503766281863    1.54427838194581
H        -9.66562169095546    0.49169258452081    0.97574560091799
C        -8.73334208607447    0.72616984046822    2.88914827880692
H        -9.63644801488793    1.06656452408422    3.37517662582374
C        -7.56263928567403    0.61479537149824    3.62166392302026
H        -7.57507415000113    0.87017884495897    4.66977052460880
Ni       -0.44659996702772    5.21528735469773    3.41561527091255
Br        0.22889124194246    6.80453860798980    4.83117838727992
Br       -0.48130666163573    3.68891826032668    5.03930617911315
C         4.94666918024438    9.53027853772624    4.13584130273904
H         3.92464254204484    9.77770688408874    4.38510223369124
C         5.82771603338692    9.16498498491977    5.13496720489624
H         5.49262655478499    9.13605456208092    6.16102346277192
C         7.13521992052761    8.83214589836667    4.81970205769851
H         7.82667143185478    8.54447687839570    5.59792039004974
C         7.54787952524324    8.86867212111076    3.50069760019449
H         8.56530914559401    8.60935713851899    3.24410426236316
C         6.66245135419949    9.23271762278071    2.49862432875443
H         7.01040414364142    9.24811408223361    1.47724635599453
C         5.35172769070999    9.56950959271682    2.80392834901515
C         4.31997132917325    9.95138332323619    1.76568266392341
H         3.92023072413883   10.93489037272206    2.04197996939822
C         4.86006434477636   10.04945349723813    0.33634737117266
H         5.66758647566066   10.77549780820861    0.27838908228771
H         4.06285450496552   10.36853369552820   -0.33260622971489
H         5.22224706162911    9.08259513683884   -0.00634605229938
C         3.18021651378935    8.95820736854101    1.79024305348711
C         3.44057901998285    7.60359376669763    1.94800927424351
H         4.46018569890431    7.28400846776411    2.08697972229136
C         1.10726716726891    7.12234638563509    1.76919219621119
C         0.81660757738010    8.48119166756040    1.63492402616432
C         1.86884011095183    9.38188609971278    1.64768340024347
H         1.65260233973968   10.43693634541005    1.55900205995671
C        -0.60611835151067    8.94229092480252    1.54246816592933
H        -1.18672665602909    8.51583941688052    2.36094228951718
H        -1.06652104333067    8.63575110934121    0.60257409070161
H        -0.65784240711704   10.02456330693361    1.61162409743585
C        -0.47701404205701    5.72742305205041    0.72314432537239
C        -1.47530726911936    4.69029921576894    0.92368185728244
C        -0.10488696381228    6.16232406733436   -0.65729557258195
H         0.69967963541946    6.89347610893063   -0.62477162212517
H        -0.96552735982609    6.60185310173282   -1.16060393745674
H         0.22064154756666    5.30419146749629   -1.24492998927457
C        -2.32295996786318    4.22006327171139   -0.21380053487930
H        -3.02376368082939    3.45739959780873    0.11928428586993
H        -1.69507737522265    3.80326253763711   -1.00098040185467
H        -2.88102189617019    5.05306386242104   -0.64031569214545
C        -0.59971944134579    1.56563544071264    1.98925664944250
H        -0.48561526462947    1.77594349601092    0.92410805388257
H        -0.36209497151615    0.52041615258393    2.16327586688415
H         0.12007436735697    2.17862641295610    2.53270996801465
C        -4.23410521533591    4.93336989521127    2.89929076214539
H        -3.96645883185011    5.45245328466766    1.97344170081281
H        -5.32341965707231    4.93073982080985    2.97363961434081
C        -5.07117024030868    0.05949182206443    3.74689306273280
H        -4.62641475610324   -0.90441440085599    3.47232633720645
C        -5.17456419922480    0.11219109683568    5.27233367193921
H        -5.51225813967830    1.08908094257593    5.60824514054695
H        -4.19339185787068   -0.06661642557590    5.70641978431038
H        -5.86114505616203   -0.64950831163871    5.63520920538593
N         0.06580821648269    6.17789948554743    1.80154390574685
N        -1.53490224799862    4.21414807379657    2.12007665054499
C         2.42005222178821    6.67117353079793    1.96249747938893
C         2.64780440723239    5.20204919191611    2.20802814427777
H         2.45864789434609    4.64389871705463    1.28241480071783
H         1.89402467190308    4.86057988790635    2.94821232238229
C         4.02614764995741    4.84432017410696    2.74385549906958
H         4.79878508280873    5.03503797234651    2.00201500791355
H         4.05605599580367    3.78745017501363    2.99996327863237
H         4.24496829706664    5.42007667660424    3.63991128950151
C        -3.65297988064182    5.69500908461706    4.09088161201177
H        -2.55724085390046    5.78468799145780    4.00026281958057
H        -3.87121759929056    5.17461060533066    5.02027488550724
H        -4.06302455442888    6.70101316601666    4.14212606941303

