151
CSD_code = ZESCOS | q = 0 | S = 0 | Stoichiometry = C62H84P2PtS2 | MND = 4
Pt        7.96581278073082    7.30394523703302    6.36958749065214
S         9.11570329797932    5.79298850107765    7.91323054526008
P         6.23675545110214    5.80305306288207    6.16844490859465
C         7.86306336772804    4.04116006304273    9.63056342821914
C         9.28563017493551    8.05412447237336   10.94799555014943
C         8.12921034477833    5.38547225716206    9.31461792720382
C         7.35739451300285    8.84721318051375    9.73105259993722
C         6.79701247661532    6.03321643127192   11.21842640185993
H         6.43504254330515    6.83434917681680   11.84776028047939
C         6.44400417181351    4.71666973258754   11.48826230149183
C         9.84120418930898    2.71543106299246    8.87331238030163
C         7.65642622922329    6.37665219021037   10.18423171781783
C        10.38247217025237    1.65528537966825    8.16470616388487
H        11.45621172609724    1.52714736949243    8.15038316068657
C         5.48014002564589    4.41131863569998   12.62258841054153
C        10.75732759705694    3.60894632402413    9.65164901167920
H        11.70251168528647    3.10714486414971    9.84687780765943
H        10.30314078207360    3.89317676943659   10.59877607497407
H        10.96173673520832    4.51781452651824    9.08625008630425
C         7.63378893413433    1.95036357428344    8.26922076916788
C        10.12195958417395    6.92934417663421   11.47842140254089
H        10.94946612098278    7.30928338352839   12.07302341146802
H        10.52406391118622    6.34321259873895   10.65386824648861
H         9.52116765775378    6.26233835443624   12.09584960751523
C         6.09705638673382    4.87814862792649   13.94806548915254
H         7.03902282170685    4.36270556311830   14.12568560539721
H         5.42332645316301    4.66075725451086   14.77447780759884
H         6.29072637939732    5.94753570715219   13.93755608206347
C         8.45247529657809    2.90094520004210    8.88969026619670
C         8.12272760410068    7.78741794354551   10.21410921873268
C         7.04079097768541    3.73701693559947   10.71035111746370
H         6.88976903353498    2.69371723291700   10.93329936006907
C         6.14059739749775    8.59484623836648    8.89868684112105
H         5.56605523177076    9.50642983900392    8.75518530385638
H         5.50891173835823    7.83704050309140    9.35610061305766
H         6.45597676679980    8.23279891451969    7.90372614891379
C         7.74710295170764   10.15308163683904   10.00517902842353
H         7.12628640313356   10.96825455049069    9.65655628259074
C         9.66126239134473    9.36773789636292   11.18237159002810
H        10.56185130764545    9.56694276610738   11.74725188853868
C         6.13352083869515    1.98968950718408    8.35632598361163
H         5.68937460902893    1.64337607688997    7.42478163488065
H         5.76753215984306    2.98600128853734    8.58095986416172
H         5.79627250766065    1.31771907652565    9.14710299791464
C         5.10862390314119    5.55465086693957    7.59278991802356
H         4.47198873091474    4.69265176369285    7.39585409644307
H         4.48526469773398    6.43960663924815    7.70602558380554
H         5.67066553050770    5.39497856596048    8.50970948084576
C         8.21108855168446    0.90074525765077    7.56662057142634
H         7.56582022822667    0.18285729411925    7.07812372391753
C         8.89373416622364   10.43240091420063   10.73069664564716
C         4.16415354191157    5.16075499308983   12.36908424901456
H         4.32164143348735    6.23520177847227   12.33082366717635
H         3.45171848628486    4.94978165869052   13.16394193275211
H         3.72821491344722    4.84526831896271   11.42270887109042
C         6.80424090744537    4.11431883809289    5.79195854570033
H         5.95482805557809    3.43526266264679    5.74129295177513
H         7.50568447024994    3.77996845383060    6.55367075126839
H         7.31315852113176    4.13078114043171    4.83034035032356
C         4.99037565109666    6.07170764205540    4.85947147720907
H         5.47677820078407    6.07779447437561    3.88761675337906
H         4.50735554312872    7.03469952078140    5.01245401224703
H         4.24732188693361    5.27556423303274    4.89375200139647
C        10.20036147834717   -0.38918330907751    6.72617024490548
H        10.63921679863782   -1.10885040055314    7.41771836159691
H        10.99429170650788   -0.02837429490896    6.07422568895701
H         9.45675108910939   -0.90396832415029    6.12236155779058
C         9.58406629765653    0.74773833204309    7.48474554944654
C         9.31296933501550   11.84379223868129   11.01302053689926
H         9.50621225306688   11.98075533280253   12.07589228817917
H         8.54398331909980   12.54746297412438   10.70363435631312
H        10.23196346950254   12.07888128815323   10.47543706709891
C         5.16264138617890    2.91803412492588   12.73703443925592
H         4.73193013241781    2.53964656360214   11.81250393442309
H         4.44053617538041    2.76026807114212   13.53588743512889
H         6.05519259155147    2.34391339037907   12.97454112855714
S         6.81451430401642    8.81446671951612    4.82494926516768
P         9.69365500150103    8.80473379020170    6.56979678393995
C         8.06727196903987   10.56613998947299    3.10748867425256
C         6.64488043833493    6.55290827790864    1.79042947852181
C         7.80113988321013    9.22186481163220    3.42356845224251
C         8.57322966728935    5.76013274274158    3.00740510240450
C         9.13323061174214    8.57399846787902    1.51972210651321
H         9.49515161715022    7.77283011168976    0.89040553571861
C         9.48617231182029    9.89052795598468    1.24971879800942
C         6.08912327755132   11.89175302372107    3.86490126477471
C         8.27392263025117    8.23060871586561    2.55402741888089
C         5.54786067674692   12.95190114089396    4.57350170276049
H         4.47411391215616   13.07991877958785    4.58798374490971
C        10.44987866770584   10.19578173114938    0.11522525727774
C         5.17293811608390   10.99803757330650    3.08687337065408
H         4.22765448826633   11.49969683073736    2.89177022361478
H         5.62693824862866   10.71370733440945    2.13969080275525
H         4.96876176803713   10.08922527212729    3.65244944105927
C         8.29655152783930   12.65707176492138    4.46864184174305
C         5.80845689933426    7.67756589316420    1.25989510747564
H         4.98091400038727    7.29751995629826    0.66541794954269
H         5.40640267501288    8.26381902385283    2.08438138677819
H         6.40917306311851    8.34449379909114    0.64231412469946
C         9.83281069439697    9.72878106569343   -1.21012415553608
H         8.89080523712751   10.24417146458598   -1.38768778043101
H        10.50642878811458    9.94610209702523   -2.03664815703188
H         9.63918165537979    8.65938764009305   -1.19947860495763
C         7.47786745459645   11.70638224955689    3.84833004707456
C         7.80775196368815    6.81979430799602    2.52429171959241
C         8.88945906986973   10.87023342588880    2.02762359392389
H         9.04046302238164   11.91351918739305    1.80457503235712
C         9.79005089706519    6.01271969015222    3.83965168192058
H        10.36469778602698    5.10122072529164    3.98321030092619
H        10.42161296545570    6.77055881320059    3.38213123498639
H         9.47473708106085    6.37481832304509    4.83461146446595
C         8.18364898028810    4.45419638665457    2.73340421345504
H         8.80456489929403    3.63911908542226    3.08207446235335
C         6.26938528777005    5.23923390532952    1.55617041875267
H         5.36881769109763    5.03988645865245    0.99130914814240
C         9.79681539928218   12.61785050516044    4.38139688912035
H        10.24101560744616   12.96424743040587    5.31288592390419
H        10.16286634027502   11.62155518102587    4.15678498074823
H        10.13395140453403   13.28980292076571    3.59055386504185
C        10.82175681669562    9.05302515004957    5.14557032994186
H        11.45835354679153    9.91509476555752    5.34246495802211
H        11.44516528603398    8.16809980426886    5.03240571087301
H        10.25970239555927    9.21259376595108    4.22866713328554
C         7.71924871354204   13.70669142244864    5.17123721642593
H         8.36452190900747   14.42466219277941    5.65960314339478
C         7.03702284740309    4.17469903788753    2.00795119945741
C        11.76592337458340    9.44641271500964    0.36863299353486
H        11.60847565870516    8.37196348702089    0.40703236613832
H        12.47823892528207    9.65732128452247   -0.42635025283688
H        12.20198954638383    9.76202196206992    1.31490874146405
C         9.12629285429847   10.49342257099658    6.94623057122651
H         9.97574391498040   11.17247456681242    6.99681975824732
H         8.42485608447665   10.82775779085225    6.18453847830923
H         8.61744184820678   10.47706535874989    7.90787539271708
C        10.93984813416475    8.53607182999122    7.87870054842282
H        10.45348147624479    8.53007121953198    8.85056886543098
H        11.42287249099225    7.57306193521081    7.72585441367308
H        11.68295466170665    9.33217087499307    7.84441933990505
C         5.72995817112101   14.99649352780832    6.01183861174776
H         5.29093181664865   15.71605602221303    5.32029394192666
H         4.93615143492517   14.63565014774467    6.66390988917372
H         6.47359001986444   15.51140467611350    6.61550890342983
C         6.34627067340746   13.85958033837731    5.25327455334527
C         6.61788104560579    2.76324301733477    1.72583511535091
H         6.42458682754104    2.62610825231299    0.66299950082886
H         7.38692197894158    2.05966712132726    2.03528508115201
H         5.69893497865436    2.52817249574721    2.26350141132431
C        10.76731188030706   11.68906456449042    0.00055778997443
H        11.19813321649840   12.06758086352271    0.92498380228794
H        11.48930517282302   11.84676977527062   -0.79841094194806
H         9.87470513912639   12.26311780681849   -0.23690365938315

