76
CSD_code = ZESKUD | q = 0 | S = 0 | Stoichiometry = C28H33BMoN10O3 | MND = 6
Mo        3.97570959979736    2.37600972383298    2.07284471461387
C         4.14669591309732    2.30868788381271    4.00446998866570
O         4.34096730443772    2.35522929740384    5.14295136813574
C         3.63025159655927    4.29100363093040    2.29492472428277
O         3.38363308802361    5.39290016465196    2.49133726112251
N         5.72911277976328    2.64008360541657    1.97832410882818
N         6.93055719686817    2.68502856357769    1.93350633345683
N         8.56235528323059    5.85065770482424    2.12385069832632
N         9.65519469538051    4.97880090742376    2.10602327194567
O         6.25506574208027    5.62620881443174    2.15998716084336
C         7.77895701728946    3.74651772444507    1.96574993884466
C         7.36754399136790    5.14070707981692    2.09368292871109
C         9.14657648701347    3.70493822311936    1.93117135612508
C        10.82627901546938    5.40832359165887    1.37225569731695
C        10.03331453229120    2.52699094102905    1.75935239637269
B         2.18977424259049    0.43257640768606    0.13966394573732
N         3.73959700312327    2.37466249770993   -0.07413860299578
N         2.93306084996560    1.49046925627514   -0.68222394445878
C         2.94119640579769    1.69328539846601   -2.01477203382121
C         3.79357385791588    2.75134570817819   -2.26375400004477
C         4.27532939542022    3.14881893121435   -1.01145138946563
C         2.15038336805545    0.89022644151284   -2.98422455070905
C         5.24949122230513    4.23382149269270   -0.72601837623528
N         4.06271362238556    0.25315129920170    1.78090490171319
N         3.23811469149882   -0.36793535425994    0.92372333711946
C         3.50230097167371   -1.68825592805423    0.89839090084798
C         4.54412343165848   -1.91644992709407    1.77837627514260
C         4.86414765297707   -0.66522919052579    2.31249512599668
C         2.76913619159499   -2.66968511970426    0.05640320606559
C         5.91012951310980   -0.34864739008173    3.32084489726715
N         1.84409668478993    2.01184750007692    2.05917906612028
N         1.30765387680778    1.16608185502634    1.16066018657118
C        -0.02715296539797    1.10055206812165    1.31985379088939
C        -0.35962436340213    1.94081665832133    2.36574874709387
C         0.84733540452407    2.49375923688668    2.80150434456485
C        -0.92798109281677    0.25578290799442    0.49258727912426
C         1.02444145298609    3.47303821542690    3.90681213131436
C         8.69631164193180    7.16491129549142    2.58900248480817
C         7.80029555939512    8.13478259242774    2.14957394330086
C         7.91691010577116    9.43169196901034    2.61306952715715
C         8.92701946215951    9.77534969662382    3.49644695490024
C         9.81210777371018    8.80661651487681    3.93866975122863
C         9.69684976307081    7.50155724740472    3.49762180099187
H         1.54530810118569   -0.27212470133053   -0.55192313467790
H         4.03386219226431    3.17882794092112   -3.21630910254023
H         5.00679604965655   -2.85617806465608    2.00332794084782
H        -1.33771770385833    2.12795187641185    2.76035603781903
H         2.43443290500807   -0.16003160810551   -2.93973406667619
H         1.08583823999624    0.96140558752849   -2.76690180550607
H         2.32876536267680    1.25997659516840   -3.99045562309835
H         6.26166856919705    3.82789273318695   -0.68297550167319
H         5.21633274387553    4.97877996082372   -1.51814102343048
H         5.03613446509689    4.70995314006434    0.23053708041372
H         1.70919766052743   -2.67642403872739    0.30517221903100
H         2.86644148056908   -2.42184267990390   -0.99936826180452
H         3.17530966695564   -3.66381525555210    0.22290245011995
H         5.45326426562479    0.02559656153200    4.23692065016133
H         6.47865634578456   -1.24570538588667    3.55455054290216
H         6.58747920204148    0.41735232110930    2.94531401479614
H        -0.85883547280156    0.53142921372760   -0.55832540148740
H        -0.66316538616452   -0.79627455290422    0.58405484107797
H        -1.95403914329416    0.38998202242364    0.82442832614316
H         1.12201034715746    4.48467302094785    3.51228937894719
H         0.15522882146860    3.44460186718622    4.56023985763378
H         1.91750775020135    3.24822135121212    4.48740160401269
H         7.01042015733674    7.85720676815774    1.47189208712240
H         7.21592140914278   10.18069087063139    2.27680286626784
H         9.01892541550141   10.79206223898990    3.84755566958219
H        10.59133320249440    9.06367646604144    4.64112073397480
H        10.36344739667995    6.73867551586793    3.87188897591382
H        10.68744829318700    5.31504843143427    0.28937394879492
H        11.67164788091685    4.79579370226080    1.67913555452218
H        11.03740052021622    6.44886803586567    1.60960262546064
H        10.55227232786997    2.56018418519630    0.80042543557395
H        10.78053441394932    2.48583068227108    2.55070612963579
H         9.42582255329376    1.62728506082446    1.79565330231929

