101
CSD_code = ZESKEN | q = 0 | S = 0 | Stoichiometry = C50H42N4P4Pt | MND = 4
Pt        0.00047567041504    0.00074220316838   -0.00079673027106
P         1.35169439989296   -0.99035930521662    1.53539605330873
P         3.28095004946348   -0.42384679002376    3.69686737533529
N         2.52544856295165    0.00734593646261    2.20869565678218
N         1.03456590164394    2.71393248799112    1.15694804116618
C         0.60537311470920    1.76471580203654    0.66391205543630
C         2.27328968704426   -2.52221462632564    1.24781664972582
C         3.66015637954207   -2.54139580966311    1.17249314255506
C         4.31930981326749   -3.73250841652579    0.92555625736105
C         3.59855099079374   -4.90047609273266    0.73936278731599
C         2.21346116726726   -4.88014688043821    0.79778154584570
C         1.54956252873447   -3.69499743442669    1.04906955419803
C         0.21582524396166   -1.44546517616047    2.88454842078467
C        -1.03141871736762   -0.83068601146213    2.90210599032933
C        -1.89989644423057   -1.05623966861233    3.95337880854417
C        -1.52267789408145   -1.89671290500513    4.98816426757680
C        -0.28571988612102   -2.52077589972292    4.96651562797277
C         0.58602217513206   -2.29745183423773    3.91703762990116
C         2.08344639564183    0.23122933552999    4.93780117491030
C         2.08278277775654   -0.37265771322510    6.19058789706606
C         1.18658772008891    0.02903523358852    7.16322609488856
C         0.27268282470958    1.03133869836350    6.88531670381731
C         0.26850117179322    1.63595297083759    5.63957706503341
C         1.17106326361652    1.24358355207984    4.66792820552582
C         4.48301684911093    0.95711734319305    3.74678677861388
C         5.02872975098186    1.47900707893301    2.57908817604893
C         5.98541496490740    2.47591353202687    2.64473645932387
C         6.41833634582626    2.94690265194254    3.87235945168571
C         5.89441492407364    2.41408120570030    5.03917380601259
C         4.93651220175736    1.42000410238545    4.97824472228710
H         4.22074536445763   -1.62704608554160    1.31123245390889
H         5.39826507769887   -3.74790936441414    0.87550443757290
H         4.11621461403209   -5.82819124614627    0.54431041446396
H         1.65059617529450   -5.78883272941653    0.64477582580935
H         0.46891590782570   -3.66867261648057    1.08825633283515
H        -1.31595115313679   -0.16733778380271    2.07682912414662
H        -2.86743452581678   -0.57680206014854    3.96944557186984
H        -2.19704947143400   -2.06927231931829    5.81379512653725
H         0.00071598625336   -3.18015611083667    5.77236165351984
H         1.55340834390173   -2.78255150271842    3.89065034191632
H         2.78928977921800   -1.16718005979070    6.39314229146007
H         1.19397908702691   -0.44479102261620    8.13430686314770
H        -0.43673803490362    1.34079836751196    7.63882414043484
H        -0.44157269561157    2.41989465111673    5.42021660774497
H         1.14946063726046    1.73287129263769    3.70390301061455
H         4.70174490648915    1.11123058554788    1.61697450355707
H         6.39551072240878    2.88492242452311    1.73274238202496
H         7.16490179909841    3.72585988679539    3.92097036324103
H         6.23323338716960    2.77565859075857    5.99925246232172
H         4.52551209782631    1.00568331155397    5.88882009457585
H         2.34008264730295    1.00240514356313    2.07155948230724
P        -1.35289144286168    0.99150662923688   -1.53638742377952
N        -2.52712707170194   -0.00628931284844   -2.20873754489856
P        -3.28134939316166    0.42440358641660   -3.69783423483508
C        -2.08283243487660   -0.23265620235603   -4.93671408147126
C        -2.07749001199042    0.37225744139738   -6.18895933490836
C        -1.18007588315049   -0.03116371136086   -7.15976878357025
C        -0.26969618825504   -1.03630006386460   -6.88053951375184
C        -0.27027343558320   -1.64204482810315   -5.63533905887575
C        -1.17406212291629   -1.24794895018329   -4.66554071549512
H        -1.15613582172245   -1.73829280880482   -3.70198079529702
H         0.43695177571479   -2.42824634781305   -5.41489558504204
H         0.44063127183422   -1.34716740013524   -7.63261122923991
H        -1.18382073984856    0.44349520779408   -8.13046280295925
H        -2.78130023449295    1.16888567312702   -6.39257912036181
C        -4.48352775738113   -0.95645755648472   -3.74776075145336
C        -5.02919691647318   -1.47902373402752   -2.58035834309848
C        -5.98530807087326   -2.47646490354602   -2.64660313540652
C        -6.41766066658831   -2.94727650608226   -3.87449317414232
C        -5.89396450978268   -2.41357885768751   -5.04101720918972
C        -4.93664843140450   -1.41899203331285   -4.97949142255534
H        -4.52576437069444   -1.00390486919006   -5.88977827117709
H        -6.23237383247473   -2.77499271294134   -6.00130036267696
H        -7.16355002576410   -3.72685431451436   -3.92355043476601
H        -6.39528721601838   -2.88615884601383   -1.73485794970170
H        -4.70267053322115   -1.11137094743531   -1.61803853251078
H        -2.34119014521752   -1.00128216143239   -2.07196236579588
C        -2.27462048838172    2.52326674639325   -1.24858396631941
C        -3.66155513692290    2.54227271322853   -1.17437077317058
C        -4.32106550674601    3.73309844210789   -0.92704877047795
C        -3.60061607739271    4.90101157292989   -0.73931422102946
C        -2.21548550224986    4.88090093838403   -0.79674018913414
C        -1.55121863937610    3.69603540345850   -1.04848096754079
H        -0.47054347336128    3.66994565269787   -1.08694908582588
H        -1.65286139839645    5.78953756297174   -0.64257592447662
H        -4.11856423294700    5.82847091407863   -0.54380584979429
H        -5.40006494606435    3.74829268243402   -0.87787029086527
H        -4.22196405571985    1.62799017244219   -1.31422257271669
C        -0.21694195898210    1.44655346504111   -2.88557818530669
C         1.02968843567233    0.83048773971425   -2.90370973990519
C         1.89877618344431    1.05667279015630   -3.95434082772781
C         1.52293534591552    1.89931561279399   -4.98785191826929
C         0.28658955837632    2.52455473919069   -4.96570117060911
C        -0.58587396188332    2.30042205616505   -3.91696437703305
H        -1.55284128276866    2.78632464971805   -3.89036706007023
H         0.00124420711638    3.18562175291019   -5.77055897567345
H         2.19794199322294    2.07268545550791   -5.81279995609116
H         2.86580752607691    0.57621703212213   -3.97077106289626
H         1.31338261752011    0.16564639531271   -2.07938505413558
C        -0.60393903870148   -1.76308594478164   -0.66648758202292
N        -1.03188854422173   -2.71186893806249   -1.16151245506624

