81
CSD_code = ZESTEY | q = 0 | S = 0 | Stoichiometry = C42H30CdN8 | MND = 6
C         5.67338717342143    0.08096197113798    4.15210752889367
H         5.35573313306605   -0.22235259060117    5.13643015066406
C         6.16899058996216   -0.76582929180253    3.13922447193706
H         6.31317319112345   -1.82721322633188    3.21203142106520
C         6.41967740042298    0.04457571562107    2.06245889680446
H         6.81875331318906   -0.24602619531753    1.10937626800337
C         6.04668427504169    1.36631437472192    2.45196234866277
C         6.03466963129510    2.49125495965485    1.62254970852516
C         5.59318082440393    3.77549215477975    1.95427881502501
C         5.34265655049097    4.82551073043272    1.02070293458488
H         5.52604056625145    4.78704562854686   -0.03627190955248
C         4.77914679522492    5.85382981114557    1.73057764678634
H         4.44410981085239    6.80370783213893    1.35958861055035
C         4.72003429411071    5.41270430074759    3.06780111270008
H         4.32856880575733    5.96518986256899    3.90584913196750
C         6.45936318411109    2.29099177020825    0.22099736514473
C         7.56369800171828    2.97852857081818   -0.27838387504479
H         8.09835009201589    3.65679032453013    0.36983531724298
C         7.97857601471555    2.79376241830797   -1.58096367138799
H         8.83900586549074    3.32206402200314   -1.96516427283103
C         7.27799668517383    1.91996432562686   -2.41382913754825
C         6.16033183848928    1.24031679507707   -1.92704226662089
H         5.61589248942862    0.57315783748816   -2.57915554325377
C         5.76120034977808    1.42574935252766   -0.61936447727056
H         4.89264866401641    0.90901013440131   -0.23959772271772
C         7.69977795568340    1.72726429373406   -3.74862599851915
C         8.59080318703603    4.38281477497424    3.42505177941258
H         8.06191747842127    5.27421600397672    3.73468274502301
C         9.61835873561725    4.45320506900762    2.49651513218441
H         9.90145569424246    5.40184686138482    2.06643087537721
C        10.26645867470131    3.28272553604272    2.13351104667776
H        11.06744329135186    3.29531054127030    1.40860914282600
C         9.86202289687490    2.09658296902478    2.72353119699194
H        10.33738395886159    1.16102830456578    2.47385271663573
C         8.82762783477592    2.13310421307567    3.64634886827566
H         8.49295213907619    1.22658758637057    4.13243106086178
Cd        5.92815583695935    3.15965017262494    5.01408093928428
N         5.61267500326711    1.34358666696692    3.76348615136686
N         5.20201125704657    4.18941423687842    3.21103429418987
N         8.04620900058103    1.57126699710877   -4.83051111427395
N         8.19869365595238    3.24899916934513    3.99085182672704
C         6.18189332705722    6.23858700426598    5.87603165189801
H         6.49938449191198    6.54212231170686    4.89172188869225
C         5.68586808927853    7.08508070784704    6.88894677769347
H         5.54114881250172    8.14639510988070    6.81619523723339
C         5.43563075469220    6.27450558220625    7.96569129441201
H         5.03642420402992    6.56490793767158    8.91877998694088
C         5.80930407424721    4.95297478249685    7.57613911688608
C         5.82209495939606    3.82806040569682    8.40559671718879
C         6.26409748524212    2.54402470227707    8.07380519783531
C         6.51546003774933    1.49415229384689    9.00731704786358
H         6.33266382529048    1.53268064452787   10.06439259777852
C         7.07887605350262    0.46594908962453    8.29719878500577
H         7.41440095144895   -0.48380361165316    8.66806969532510
C         7.13710873509467    0.90699130134058    6.95990122571256
H         7.52815620164274    0.35454245645106    6.12163117598429
C         5.39759811059011    4.02826055818481    9.80721524083796
C         4.29370171521000    3.34021439527354   10.30689225209295
H         3.75933356375860    2.66153600721300    9.65886574792431
C         3.87882057038847    3.52511389700420   11.60945013290883
H         3.01872472649379    2.99641843316585   11.99385825569908
C         4.57893360321976    4.39962403848735   12.44197407301253
C         5.69618986950500    5.07974099822662   11.95491564712968
H         6.24023902861272    5.74745720212844   12.60678087651658
C         6.09534676613784    4.89413699068493   10.64726718143620
H         6.96350673060223    5.41134173951579   10.26725336330900
C         4.15696324557757    4.59282685882078   13.77663705236956
C         3.26634992007190    1.93694174921612    6.60595474246195
H         3.79603116128047    1.04526962472688    6.29845752129724
C         2.23848603224936    1.86773393997980    7.53424828341735
H         1.95585868004990    0.91976538740229    7.96612276091814
C         1.58946849320185    3.03850307139659    7.89466991225245
H         0.78819512866720    3.02683210685573    8.61926997464238
C         1.99339836172077    4.22373277893033    7.30247888214819
H         1.51732681002022    5.15947207631259    7.55010412148068
C         3.02816870260870    4.18604636942476    6.38012462203652
H         3.36246483259414    5.09179678156233    5.89236046220902
N         6.24322807708349    4.97596389579171    6.26459046872018
N         6.65472664099577    2.13013863475939    6.81687319871483
N         3.81029107406743    4.74908050850822   14.85841295391267
N         3.65792001220292    3.06987625345818    6.03802436072358

