59
CSD_code = ZESVEA | q = 0 | S = 0 | Stoichiometry = C32H20CdN6 | MND = 4
C        17.39313809857070    3.53237573249387    0.84093421633943
H        18.31294159429757    3.84177452980711    0.36515488208617
C        16.13124373108382    4.14636886723392    0.74526482676446
H        15.89720683667765    5.03020663240626    0.18422921450341
C        15.28017729863185    3.38839027932414    1.50957511672806
H        14.23703141746153    3.56531142909309    1.68705461240297
C        16.05389693479177    2.32441654283005    2.05916274524674
C        15.58051098550696    1.32291858420793    2.91639399549073
C        16.31626015611130    0.32413560849280    3.56693340088089
C        15.77393327642138   -0.74286611927319    4.34182052125821
H        14.73201201226219   -0.92410889949194    4.52144258106210
C        16.83396231491615   -1.49597712389862    4.78030251682993
H        16.80360110234832   -2.37970026748671    5.38772099112027
C        17.98948626978846   -0.87732157229761    4.26992834374911
H        19.01638109228470   -1.18257670433849    4.41221692759347
C        14.12242304560368    1.31969316326759    3.16581554641783
C        13.22902466795070    1.11842834325454    2.11546805459275
H        13.61247399891999    0.95765491767146    1.11902959539145
C        11.86808120103755    1.10931417168482    2.34331263974028
H        11.17563624556486    0.94697963723068    1.53054836599611
C        11.38069264445742    1.31405036450148    3.63486665252385
C        12.26889801726406    1.52099445969141    4.69116432556069
H        11.88530438665403    1.68078452801776    5.68791042818135
C        13.62813723785259    1.51749367723315    4.45362903432179
H        14.32018360354955    1.68077466400260    5.26602827046160
C         9.98704554160468    1.31202359393344    3.87336863942856
N        17.35735611511161    2.45709918372984    1.61768364407022
N        17.69281557472602    0.19663788738966    3.54936363742133
N         8.85731151447640    1.31099671634364    4.06769705958997
Cd       18.98754457626795    1.32871687464894    2.33132330547738
C        20.58205295318593    3.53245342637551    3.82168240037681
H        19.66225326272330    3.84185130983851    4.29743667559150
C        21.84404763000685    4.14631053339039    3.91754804312780
H        22.07816688544122    5.03008896090343    4.47872554185345
C        22.69505641446068    3.38836768283668    3.15308727907867
H        23.73814165298857    3.56541062105439    2.97538468439455
C        21.92131191705412    2.32424260754564    2.60379113850491
C        22.39462879912624    1.32267725056074    1.74660818700823
C        21.65881580912099    0.32402072065598    1.09594469109579
C        22.20107410739124   -0.74285941385864    0.32087117955908
H        23.24297941052120   -0.92389783824034    0.14096684067579
C        21.14107390332115   -1.49605341483158   -0.11741371980709
H        21.17142606227990   -2.37991096477092   -0.72453289614061
C        19.98553496812001   -0.87722062623948    0.39261769946401
H        18.95863886305771   -1.18256755637259    0.25037677664842
C        23.85271037363120    1.31956715322083    1.49722064357959
C        24.74615055691918    1.11858163793127    2.54757778448878
H        24.36276777065610    0.95727416366183    3.54384313238384
C        26.10711689599778    1.10943140171690    2.31985829488609
H        26.79937628053353    0.94740520436967    3.13258307388529
C        26.59458544997312    1.31421510063303    1.02838838827402
C        25.70632016022865    1.52110172305590   -0.02799319214367
H        26.09005993019359    1.68114363600132   -1.02479960308994
C        24.34700593256580    1.51765347493431    0.20942804085542
H        23.65487878124612    1.68047303039925   -0.60307797320623
C        27.98800061918714    1.31173787262329    0.78927519127575
N        20.61775557792768    2.45727042602210    3.04482920873495
N        20.28221513367650    0.19682533039745    1.11308188312990
N        29.11794240629885    1.31101684446396    0.59614651428590

