67
CSD_code = ZESWUR | q = 0 | S = 0 | Stoichiometry = C32H16N18Ni | MND = 6
Ni        7.31700774335156    2.86030451566455    5.23999406383576
N         6.74458865083217    4.21258770273687    6.50941122741503
N         5.03506037842245    2.99452169520972    4.80899696770289
N         6.97853117920033    1.56876191532854    6.47916152278959
N         7.78437752643638    0.54843305141395    6.65186641277895
N         7.35129717833224   -0.16198799400653    7.63471160125593
N         6.00892821279664    1.56893342264943    7.35112303177000
N         5.79699256429114   -2.36113123523658   10.02724517757087
N         3.11356385685725    0.04707019570299   11.78181761613450
N         4.18039363637397    3.31345871479356    9.27190142392396
C         7.60894348111853    4.93134364219607    7.21502476226426
H         8.65672087197578    4.69460928788667    7.07787348551345
C         7.21933069947060    5.92491548974826    8.09571297828613
H         7.96083488443332    6.46915329068499    8.65838940046723
C         5.86694902488022    6.19584710651631    8.23277843159704
H         5.52254816946077    6.96854526489704    8.90264850861371
C         4.96500983505694    5.44882962071815    7.50041245211931
H         3.90829627151964    5.63860442557669    7.58105897646618
C         5.43098588727856    4.44165294722589    6.65733326761055
C         4.51360710762524    3.57281355309788    5.90085579837824
C         3.20544891381997    3.33421804060324    6.31292019168908
H         2.82559641776737    3.77886664858849    7.21749590707097
C         2.42189089946641    2.46461888459290    5.57356735541047
H         1.40954397307937    2.24780399819734    5.88067656241327
C         2.96079592732423    1.87546628652479    4.44172400020494
H         2.38535422082540    1.19272730044285    3.83756471400494
C         4.27104885566694    2.17542923389497    4.10111306601242
H         4.72698857576385    1.72997343017866    3.22763301312415
C         6.24425241579322    0.46609879894990    8.07789035798419
C         5.45227127746791    0.03355201291220    9.18994257561144
C         4.55135246333241    0.84639605892737    9.82188889412149
C         5.64809538280761   -1.29188636302364    9.64596806666654
C         3.76511131794196    0.39247470988206   10.90479485516176
C         4.36203067470662    2.19870830243043    9.47514305130605
N         7.88827526930377    4.21235565131489    3.96890146126385
N         9.59944179387155    2.99594186927497    5.66923389172959
N         7.65624274404168    1.56783942995820    4.00237327511872
N         6.85181149038797    0.54591949129242    3.83248925630561
N         7.28350207001075   -0.16430646350290    2.84888542271802
N         8.62354260860469    1.56917461060764    3.12784821782453
N         8.83419125645569   -2.36130188483465    0.45212726423417
N        11.50753177988036    0.05244871734371   -1.31208681219219
N        10.44526159204099    3.31573415962513    1.20261158605247
C         7.02347718020415    4.93060008156484    3.26329853667263
H         5.97578065946995    4.69399891369645    3.40123535504373
C         7.41249695686617    5.92347341701888    2.38156348326803
H         6.67061186527169    6.46712564945853    1.81882094465727
C         8.76475874879437    6.19448971182222    2.24353845474253
H         9.10871471673215    6.96663979753816    1.57281334286708
C         9.66716555963791    5.44814327655813    2.97600203132909
H        10.72381933999512    5.63799512062281    2.89472468368085
C         9.20173796859398    4.44145376202211    3.81996140819702
C        10.11966155859802    3.57292090902748    4.57609602061629
C        11.42700428963248    3.33310717187787    4.16216728585176
H        11.80560528502527    3.77666108893906    3.25652056948532
C        12.21117469064251    2.46371529860674    4.90110567196164
H        13.22288598173087    2.24592464853811    4.59259099726015
C        11.67364531641155    1.87602429017882    6.03436830221010
H        12.24960178807195    1.19347824613360    6.63825550030781
C        10.36409785788651    2.17708421734614    6.37673648224328
H         9.90917632649971    1.73259393519373    7.25123348344787
C         8.38817055141977    0.46554688463777    2.40230613971864
C         9.17737125735659    0.03420346443077    1.28781776040458
C        10.07506160030780    0.84844929371166    0.65309580134788
C         8.98119574354126   -1.29114927358573    0.83168871711197
C        10.85755532375640    0.39652848328970   -0.43335353053644
C        10.26428035348408    2.20077207438651    0.99988927779513

