107
CSD_code = ZETCOS | q = 0 | S = 0 | Stoichiometry = C48H54N4Ni | MND = 4
Ni        7.23580958521987    9.19089699429578    3.85380883945017
N         8.82344420488025    8.27142017827588    4.21867421899742
N         8.23508212131233   10.84697535388377    2.82226032874557
N         6.60412769180534    9.66279955789305    5.81698549000258
N         5.54695292473824    9.51579243290356    3.05876842275834
C         9.70391807274709    8.23817672191657    3.22196557405408
C        10.02278964158642    9.29385444196029    2.37876327288561
H        10.85272440767258    9.12234792415826    1.70865551834808
C         9.41448944166881   10.55801699696423    2.25442378357951
C        10.09334383014021   11.52021046612827    1.43864057434984
H        11.03772078781110   11.23616402777188    0.99926664263598
C         9.56185065418691   12.74356409698023    1.22645971257649
H        10.05407767930935   13.47533125065213    0.60088849141312
C         8.33383844530897   13.07914870507178    1.85164782220719
C         7.73927226567659   14.33911630486326    1.69504877895170
H         8.23316631123003   15.06615619071630    1.06520164504338
C         6.56498688488866   14.64821965468589    2.33107037030952
H         6.11222377683420   15.62062422362988    2.20674324891595
C         5.96407352310929   13.69604872570667    3.15904915838225
H         5.05036481227832   13.94306203555932    3.68010683397148
C         6.52414751189974   12.45714715132737    3.32534374194593
H         6.06359643681735   11.74287645477982    3.98686865741305
C         7.71333107049754   12.09342081492673    2.66416990067921
C        10.44241851583885    6.95138442993610    2.90208402892224
H        10.54763542196918    6.29998699021180    3.76361257345327
H        11.42753892115666    7.16297933320232    2.49435252524606
H         9.87907369534891    6.41225077536793    2.13870183972354
C         8.72467448289895    7.10895241680157    5.01968244650915
C         7.77471962958194    6.11467001098106    4.72037490988511
C         7.85400757647046    4.88511870191901    5.35696952197055
H         7.14138579218797    4.11135187113488    5.11289752825840
C         8.84928241456668    4.63002757258998    6.27831550756856
H         8.92263740863679    3.65864480674103    6.74466359287639
C         9.73625152233038    5.63341521633031    6.62440183633127
H        10.49293927196891    5.42735446613460    7.36472387090653
C         9.67902572374070    6.88743979008748    6.03367789248197
C         5.42842681215420   10.23605516067099    5.99002605878597
C         4.39600388902304   10.25100355261861    5.04754153319599
H         3.45132119279888   10.64466410321768    5.39233253843006
C         4.42010037322885    9.87031452974043    3.70491262976688
C         3.17467343189461    9.92738106039544    2.99048939530407
H         2.29441960791738   10.21353032850120    3.54568317728189
C         3.10953444801548    9.63694881353742    1.67627601507074
H         2.17736520762711    9.68163323172746    1.13123373512969
C         4.29421269106670    9.25535871296115    0.98821721002260
C         4.29045335927814    8.92472964107642   -0.37180919629851
H         3.35420510744993    8.97518616459535   -0.90986024041122
C         5.44347004595623    8.54172485347488   -1.01070662865923
H         5.43221656610984    8.28773958315776   -2.05983306611716
C         6.63499637159164    8.47867841114962   -0.28719545089791
H         7.54548424921567    8.17279488238123   -0.78224968420629
C         6.66491269883444    8.79568427799936    1.04687747221471
H         7.60898843509982    8.73592758697214    1.57635007766028
C         5.50130100943293    9.20350992464309    1.73184146374457
C         5.10591326136163   10.99762796337503    7.25915269999802
H         5.65595400089937   10.63438912517786    8.12068739868399
H         4.04089620928564   10.96194684902655    7.47335574856120
H         5.37776901104389   12.04176569433760    7.10227215158982
C         7.46272992257827    9.68243891510787    6.94777291236520
C         8.39286331978234   10.72014831384920    7.11956037919087
C         9.06278124139322   10.83382297122096    8.32938438206022
H         9.76288364699380   11.64309893166773    8.47431402366113
C         8.82015822009605    9.95119942811824    9.36207738762833
H         9.31545004434915   10.07528091305805   10.31411619461916
C         7.95624945154353    8.88960730125315    9.16386201377063
H         7.79237192296508    8.19065887368486    9.96924873018613
C         7.28811150080957    8.71960306158742    7.96037116704082
C         6.69867614874043    6.34824859266947    3.68537455448317
H         6.79974289253202    7.39557357416110    3.32447015886626
C         5.28800736417589    6.21331807696876    4.26288300442006
H         4.55277640916698    6.34258720853854    3.46982246616385
H         5.10589321760901    6.97449690688763    5.01815191518290
H         5.13918877786675    5.23348267047755    4.71158529173917
C         6.86529550932961    5.41613349689115    2.48436956531869
H         6.16021075764090    5.68521179828109    1.69953627400782
H         6.68127206208207    4.38296584437834    2.77183810787477
H         7.87111558651806    5.47980319311875    2.07546904809017
C        10.62488363653444    7.98358602971089    6.47225755628919
H        10.09407024773105    8.92993191423643    6.33964268879355
C        11.00953481783813    7.85530581293986    7.94779953685158
H        11.43579979332727    8.79447108725336    8.29242334848228
H        11.75544135631369    7.07623073760108    8.09287184700577
H        10.14038886710228    7.63513228029630    8.56052502354093
C        11.91316749557461    8.03043456113792    5.64196511451334
H        12.61917005267073    8.71201303566455    6.11191528821025
H        11.72397531198201    8.38772887040557    4.63532635914991
H        12.37230853814897    7.04471079212693    5.58807971437368
C         8.64988827506509   11.72504550577510    6.02282341882215
H         8.03486638023503   11.43629253159524    5.16632885458032
C        10.10944931508562   11.70374522295270    5.56376058215153
H        10.26669457617784   12.47317680877172    4.80998788008958
H        10.35132283730308   10.74266173436730    5.11860183440654
H        10.79064694291342   11.88913861663810    6.39130837452303
C         8.25933313438598   13.14037256580727    6.45217609140028
H         8.33333111631488   13.81821363876922    5.60399634462116
H         8.91514674591560   13.50249591255056    7.24107532024008
H         7.23713617692109   13.16812180999394    6.82076417436111
C         6.38700551715698    7.52252343321818    7.74734220118775
H         6.41976809718142    7.29314746649750    6.67861462511938
C         6.87064952104532    6.28871083723979    8.51217873544442
H         6.38798370728855    5.39942514108024    8.11228497510830
H         6.61829384697579    6.35892446274552    9.56817261529596
H         7.94489169614629    6.16419685101298    8.41204986872050
C         4.93054449624314    7.79684433460623    8.13918488436515
H         4.36835735893409    6.86482434724195    8.12471689518759
H         4.45777162526515    8.48590985703358    7.44720965035869
H         4.87716008245368    8.21376219158587    9.14324447953561

