67
CSD_code = ZETCAF | q = 0 | S = 0 | Stoichiometry = C30H32CdCl2P2 | MND = 4
Cd        2.89454626168752    3.39731150934719   13.08670769093751
Cl        1.02560109093729    2.15456765738109   12.37969225991547
Cl        3.03176680076646    3.77211478198430   15.39682938464331
P         4.91586583706649    3.71325572348636   11.26590112873085
P         3.00480094807425    6.02783415422809   12.12277257566840
C         6.02474166638368    5.15411373349640   11.12409282794498
C         7.39033954850359    4.94718802254833   11.10248426451512
H         7.77038038485404    3.95829329533854   11.31753808854378
C         8.31775959337674    5.95160622486930   10.78127385367971
H         9.37336846378877    5.72612114579096   10.78630161580520
C         7.83965701359919    7.17694985894171   10.41134704359517
C         6.45366226753365    7.41116763169904   10.47349233764079
C         6.13050147545431    8.70968396010948   10.04239135928582
C         4.81904292598748    9.09309791235348   10.04230097353914
H         4.50797184699129   10.06461320967678    9.68805241031593
C         3.86751775456702    8.21203254523418   10.58229630596111
H         2.84909187655601    8.56301434552091   10.64076944944993
C         4.17281187528681    6.94760353186555   11.04803993555322
C         5.50762439882428    6.46693787028992   10.90944346049233
C         8.52782079727126    8.41658683619312    9.91915367590227
H         9.10872247088243    8.20817685367254    9.01911839975811
H         9.22087861480280    8.79339775491323   10.67349198507084
C         7.38750132940612    9.42610690396145    9.64389136983304
H         7.51196870876116   10.34272079514388   10.22285859669740
H         7.34986642062150    9.70945257765979    8.59036982858598
C         4.02000400463311    3.82292844908717    9.67265317426771
C         2.91542615621720    2.98833029067517    9.52162873070634
H         2.60094895575020    2.35290146659142   10.34065739630554
C         2.20543447950889    2.97687709969275    8.33480655669544
H         1.34664119110248    2.33106446042878    8.23350132830080
C         2.59178303587991    3.79636948082896    7.28727839381298
H         2.03514734360773    3.79408408123119    6.36193606519545
C         3.69741799537280    4.61830322407811    7.42778523537517
H         4.00747782815830    5.25354091962813    6.61038449859686
C         4.41475290598516    4.63164478596165    8.61098776105368
H         5.27773297684174    5.27580394455493    8.69898989337480
C         6.00185615775348    2.28744551292206   10.88498019147514
C         6.12288645611223    1.30435583703077   11.86200359255406
H         5.60834178776918    1.42843609153100   12.81213606303001
C         6.89209806785125    0.17813723602111   11.62647845591489
H         6.98458434700265   -0.58155342885733   12.38823218862405
C         7.53662766564362    0.02600830119373   10.41042065748985
H         8.13412357492075   -0.85367237119575   10.22302852467965
C         7.41057504637854    0.99805426369347    9.42934443361248
H         7.90863483988590    0.87312515012192    8.47902458997394
C         6.64510589203113    2.12502905215051    9.66073630289499
H         6.54148078445804    2.88194373257231    8.89581016908781
C         1.30088082483237    6.61437239027030   11.63929446937293
H         1.25515150662582    7.70729974818104   11.58240317901422
C         0.30538048522334    6.12526654678443   12.68839664747864
H         0.46450338723958    6.61217577230216   13.64904214131790
H        -0.71203141667020    6.33817513461140   12.36330372669342
H         0.39589457641689    5.04290282207407   12.82636979076107
C         0.98510346628307    6.00586946565595   10.27471671686664
H         1.73665642192835    6.28407290783431    9.53561175417831
H         0.96631242056146    4.91830844078602   10.35214450830803
H         0.01131671977231    6.34078415858698    9.92165707180360
C         3.35353320820223    6.93102180452919   13.73264080542281
H         2.67858152330585    6.45153498844366   14.45422976068422
C         3.10776627590997    8.43440340148732   13.72352826710152
H         2.07292410142932    8.67384027313498   13.49050501917272
H         3.32913644666404    8.83699828538889   14.71060627746397
H         3.75575477142292    8.93226483916819   13.00396081709917
C         4.78500792129660    6.61175586460859   14.15997225080133
H         4.94676760084572    5.53247348684814   14.16831611036020
H         5.50966441886673    7.07582510937204   13.49179824992821
H         4.96120347499465    6.98194814431777   15.16788741111288

