51
CSD_code = ZETDOT | q = 0 | S = 0 | Stoichiometry = C26H20N2O2Zn | MND = 4
Zn        2.79695416001200    4.16365219085355    4.22628937082948
N         1.09434119157003    4.65097136252156    3.36882209123159
N         4.24429581686660    3.70739322454094    2.97908013377518
O         3.11421906201544    5.73203315777909    5.11349090515286
O         2.64971648433874    2.54984268610166    5.08012252087293
C         2.35893927130023    6.76958070722679    5.03488016067899
C         1.17304880705867    6.86818815978623    4.33471868726832
H         0.63249945268026    7.79858890930679    4.41555411894484
C         0.53443595363709    5.87001446220295    3.56338625371593
C        -0.72525763292605    6.15510123123920    2.97549341059425
H        -1.15767270980046    7.13047798095851    3.13759254081068
C        -1.37567779712689    5.21424915453271    2.22780309012670
H        -2.33603367015237    5.42776930459061    1.78159483466904
C        -0.77638093997136    3.96193322017533    2.04923751294598
H        -1.25536929365484    3.19009259810260    1.46959185210117
C         0.44386825926452    3.74013756150553    2.63664949062602
H         0.94620688201257    2.78769577356530    2.52862608257038
C         2.82238312871149    7.95170860739733    5.81035858775138
C         3.53068411214349    7.73460161422556    6.99039525100809
H         3.71173805938925    6.71714421019921    7.30211401416196
C         3.98319126884129    8.79917437056992    7.74600218363862
H         4.52294284003802    8.61772348530124    8.66409304056822
C         3.74805849043299   10.09788131189761    7.32550432156938
H         4.10265823311119   10.93201109973498    7.91328788777468
C         3.06414131524146   10.32410332822224    6.14230424134787
H         2.89309946406992   11.33592375914017    5.80363843959034
C         2.60278535726057    9.26055526069270    5.38839682259693
H         2.09175955766267    9.44988366850715    4.45614015051505
C         3.31989310656595    1.50276173040742    4.75340934262534
C         4.27319627825644    1.41669694429830    3.75861378222265
H         4.71898311406179    0.44850779165062    3.58998633979148
C         4.74786847941573    2.45039612774499    2.91848781810321
C         5.77924389008411    2.16197477612402    1.98772505584021
H         6.16510081293660    1.15500248422816    1.94562315968220
C         6.27480785218915    3.13850862427869    1.17024591087711
H         7.06252408779792    2.92240707924540    0.46341258539159
C         5.74573921022081    4.43079816011806    1.26549514635964
H         6.11064869005579    5.23177718519715    0.64402339213192
C         4.74348183610953    4.65333590074463    2.17607345992255
H         4.30224476626488    5.63487883824999    2.28713721740502
C         2.98155727550224    0.26898139965754    5.51356626833361
C         1.66781555312141    0.09333766851962    5.94286913712875
H         0.94232938087119    0.85864634840774    5.71091738179649
C         1.30193991613771   -1.03822062234353    6.64628438615758
H         0.27790119893672   -1.16707156936886    6.96561254884367
C         2.24804771224848   -2.00455186651744    6.94571165473670
H         1.96515644872124   -2.88875737776693    7.49809832826241
C         3.92859619414563   -0.70096251198281    5.83130108522658
H         4.96021869807642   -0.56235623366102    5.54462274687174
C         3.56182067660296   -1.82811634974173    6.54368253631872
H         4.30540969764766   -2.57200692836944    6.79113271852831

