119
CSD_code = ZETPUJ | q = 0 | S = 0 | Stoichiometry = C60H50N3P5Pt | MND = 4
Pt        3.05089890281842    0.64562072239667   16.30846097011490
P         2.62607094705076   -1.36385995561455   17.43648266773113
P         2.58096588359061   -1.15158333363818   14.83153818158310
P         3.19069684067897    2.19146402926402   18.00174201529858
P         5.22488831444069    3.36918797731485   16.60641148375559
P         3.29201650586292    2.44045013302477   14.87976102454743
N         2.20457817519546   -2.19357366621166   16.06916214183443
N         4.41649759569218    3.25485403160000   18.01263429769293
N         4.36759070839194    3.60891270852793   15.25093287781087
C        -0.02405084739988   -1.17225856760080   18.08754946419861
C        -1.15963227388424   -1.30464286188584   18.86129380741824
C        -1.06872360580687   -1.86851862998128   20.12433276726986
C         0.15753409196429   -2.29977597029518   20.60137864664161
C         1.29871670167498   -2.16012952402098   19.83072399168941
C         1.21273455823847   -1.59308262181887   18.56671164778675
C         4.42136377158249   -3.47110919677000   17.69632191708211
C         5.47082615237613   -4.15696297815036   18.28112089638616
C         6.07293793338395   -3.65779865294959   19.42516484345019
C         5.62374993687776   -2.47206688614974   19.98722349940521
C         4.57637065216217   -1.78275716462940   19.40442154894132
C         3.96868813056553   -2.28490168137160   18.25778420012601
C         1.18928036088511   -0.48391021841216   12.49840508458750
C         0.07115763370009   -0.44742658741702   11.68646672229383
C        -1.10533149648719   -1.05734038740750   12.09573646942101
C        -1.16089523738114   -1.71089082775981   13.31572378364638
C        -0.04389440413649   -1.75053495258572   14.13154175787787
C         1.13500109215767   -1.14019904451685   13.72604854705225
C         5.05946433778950   -2.23206734017106   14.48114499929136
C         6.06290607265316   -2.96144187176482   13.87709439315978
C         5.84389673125746   -3.52857860453595   12.63109113968843
C         4.61929417612022   -3.36842576507853   12.00551123518637
C         3.61040079770103   -2.63960155935405   12.61228700230012
C         3.83041901020600   -2.06109954254416   13.85372782402545
C         4.22616162161339    1.70330016272859   20.53564106106436
C         4.17059783225822    1.24898448038033   21.84096899374133
C         2.99002566012108    0.72456139480811   22.34203941085721
C         1.86082988799442    0.66481600506861   21.54041692878126
C         1.91271744131477    1.11462358322865   20.23448400666348
C         3.09839590597924    1.63301292949980   19.72653483783400
C         1.47061118636424    4.38862197218244   18.29984411334259
C         0.25411336630765    5.03132959784411   18.15939197119762
C        -0.81602665297702    4.37290293686277   17.57457368305976
C        -0.67257261081397    3.07461185887400   17.11110112246332
C         0.54663405470227    2.43730406428974   17.23343120284997
C         1.61393530295563    3.08827075415384   17.83934467018507
C         6.47365619858410    5.68511431884688   15.74833711041773
C         7.35195199921422    6.74419168088976   15.89466838359155
C         8.11058834383056    6.86017385771485   17.04851435783065
C         7.99408968470847    5.92043837287366   18.06160606403186
C         7.11886269075568    4.86004442008887   17.91970185904194
C         6.35983502334522    4.74699091418287   16.76285764279491
C         6.03655309196192    0.72143481012447   17.15421249558100
C         6.80670138133506   -0.40751915629246   16.91373659629513
C         7.76188940471950   -0.39289036687299   15.91044168557931
C         7.95629389370544    0.74644824218182   15.14380880049697
C         7.19702109528185    1.87570551915356   15.38433887101593
C         6.24116016829552    1.86647092963986   16.39373734486142
C         1.61648448774134    4.67252092824037   14.77455178869509
C         0.41949719610803    5.31172753747527   14.50670483734155
C        -0.64990336141847    4.59762287325543   13.99197953852565
C        -0.52846577510881    3.23744706133683   13.75123476429905
C         0.66230758095355    2.59390828245379   14.02458349721100
C         1.74206344540819    3.31302408390856   14.52641749592237
C         4.79780599614416    0.87044653385110   13.21207439537085
C         5.30717398844009    0.41530679530607   12.01110390385417
C         4.85025425175625    0.96257766037113   10.82286738467942
C         3.90237943835477    1.97372881579133   10.84188762835924
C         3.39568041245309    2.43515296380373   12.04473429249906
C         3.83332227972910    1.87035970816791   13.23538575254710
H        -0.08338533773630   -0.74976856764258   17.09153349053841
H        -2.11575854571435   -0.97145008500787   18.48345945372935
H        -1.95448016998608   -1.97620266985314   20.73356118703065
H         0.22745192120476   -2.74897609619422   21.58200101901464
H         2.25160042094064   -2.49781718928574   20.21189175727659
H         3.93848487611104   -3.83831186922364   16.80100198770949
H         5.82175315833686   -5.08087024018939   17.84400269237074
H         6.89554858391417   -4.19098541725039   19.87975510752857
H         6.09456025678325   -2.08192567409083   20.87842350979725
H         4.22338082787681   -0.85525671450804   19.83457999331560
H         2.10938512257168   -0.00719145252608   12.18699518692422
H         0.11582569414032    0.06133450042385   10.73404372220856
H        -1.97835582412434   -1.02345264154390   11.45993952624766
H        -2.07666042162780   -2.19032182283450   13.63120467197605
H        -0.06105672983501   -2.26402545702943   15.08280527138753
H         5.21193069504914   -1.78512723105067   15.45771184256833
H         7.01347747812339   -3.09145487938404   14.37400079428044
H         6.62583591459224   -4.09912313658164   12.15086163757662
H         4.44527685345796   -3.81802126414085   11.03821921355802
H         2.65530034826409   -2.52931337717238   12.11967447735509
H         5.13591119931496    2.12474669454180   20.13196497571499
H         5.04858914473372    1.30267791173432   22.46884225470246
H         2.94752692242263    0.36717686087627   23.36063396301096
H         0.93731796130775    0.26475168240019   21.93267179084487
H         1.03297244184064    1.07297058432987   19.60709941824204
H         2.32229637147587    4.88017504665204   18.74994500747074
H         0.13631013041657    6.04733867330982   18.50788083102379
H        -1.76618397769119    4.87662545228926   17.47148543131438
H        -1.50682350558071    2.56937080571993   16.64630398433259
H         0.69627931964204    1.42301597905348   16.85200812650276
H         5.86547570200035    5.56997032619129   14.86280261573845
H         7.44621568962288    7.48151251047520   15.11045752265447
H         8.79527242385097    7.68841315674809   17.16083451073855
H         8.58684807228870    6.01893022969700   18.95957824645292
H         7.00404691914869    4.11762366823952   18.69662760648142
H         5.34227626106977    0.73653258730052   17.99181207989332
H         6.66879555697095   -1.29172565961194   17.51994167153030
H         8.36399648004317   -1.27137033630235   15.73040894328544
H         8.70248408108231    0.75230022516256   14.36267322800284
H         7.32625809478827    2.77408308318494   14.79517532600319
H         2.46261970636773    5.21092270729098   15.17750625507855
H         0.31940118773406    6.37016167365819   14.69949009239878
H        -1.58259174010501    5.10066729511314   13.78091848483954
H        -1.36360605629980    2.67820789636833   13.35359064126507
H         0.76786655023742    1.53077686625447   13.85123577788472
H         2.65451579753245    3.22209817551466   12.06299762391421
H         3.55438294569500    2.40376584567053    9.91335092847574
H         5.23554972128642    0.60297552663079    9.87978720940682
H         6.04890278626814   -0.37026546623728   12.00204865463573
H         5.14453462822159    0.45361354694136   14.15136991358484

