63
CSD_code = ZETPOG | q = 0 | S = 0 | Stoichiometry = C24H30N6O2Pd | MND = 4
Pd        5.41387427325889   10.03465003604873   14.09199448571960
N         5.03002102746119   10.97468157927445   18.20163579642121
O         5.78099452644515    9.78160574184234    9.90002627443047
N         5.04060980950218    9.84383948599437   12.09799305237132
C         5.39682241544870   10.26236158667593   16.10019163212101
C         8.71653590919776   11.47327139936378   12.15215729117708
H         9.32836346607353   11.41240297370796   11.27640996002756
N         8.75780205097973   12.42977270992365   13.08177893410867
C         3.00177324615087    8.55389206792649   15.17673059981688
C         4.44386109090303    9.78458523037056   18.05684129715470
H         3.88794486993480    9.25575481415446   18.80269243001707
N         4.65448766515753    9.34739271644926   16.82136449924497
O         1.85208538716238    8.18248091777106   15.37670225011962
C         3.04575895623990   10.32518876671322   10.71657663452910
H         3.65875335069245   10.55550860200951    9.86001750979137
C         5.91421289569980    9.73412082499986   11.11647502866737
C         4.32238339873660   11.15397211969466   20.54384617578521
H         3.28103383314976   10.95357019079490   20.30455299933787
H         4.34729157397024   11.80724668492311   21.41196073887390
H         4.81711287223745   10.22215188139310   20.80799682296925
N         7.77977463358281   10.59214176123066   12.48077467840916
C         7.15956179072985   10.95685346603338   13.66016764745671
C         5.61805722153048   11.27795607548129   16.99614047851018
H         6.16133939487718   12.18957493705359   16.85545699462971
C         4.10339979791886    8.15923912545393   16.24248767252076
H         3.64168044087885    7.53781158067731   17.01127679634874
H         4.89569944052186    7.60677665774166   15.72056591036723
C         3.65379914321371    9.95691223147607   11.90980606150212
C         1.46574928464604    9.68683964866439   12.91898740810216
H         0.85563531964461    9.42270130522956   13.76783384895065
C         9.61427421401689   13.61272360198257   13.12019156842347
C         1.66429208281561   10.38935601580956   10.63052369416810
H         1.20321901484051   10.68650502113477    9.69916556331545
C         5.03199541930726   11.84080077329265   19.37814987267561
C         4.29649583367064   13.13513702618818   19.01714705131699
H         4.79218829842426   13.65028852866225   18.19910867688004
H         4.26761768789801   13.79909807193109   19.87660034644215
H         3.27571332520909   12.91560002855944   18.71310588971426
C         7.36449806083487    9.47104721839686   11.69237883586547
H         7.31756180431952    8.57663497601509   12.32732621904939
H         8.05046753370553    9.31591140593201   10.85819679264547
N         3.54090527584752    9.24001391433585   14.18834207005820
C         2.84898680977794    9.63197439999714   13.03131909399149
C         7.79708138030293   12.11890995848564   14.01530337177599
H         7.63552681120436   12.73646178586028   14.87465036121458
C         0.87967645864073   10.07228578100545   11.72405397537542
H        -0.19773239843343   10.12022138823096   11.65176044836130
C         6.48611963570434   12.13044134371281   19.76363336229898
H         7.01596298665373   11.20213810127100   19.96580094557801
H         6.51514178630229   12.74756483456268   20.65725856399997
H         7.00582795243285   12.65650666965163   18.96795089194595
C         8.71752297362935   14.85294365509111   13.05453987917638
H         8.12743419605383   14.84275838681175   12.14109047243969
H         9.32600192584074   15.75293668515457   13.06478549843657
H         8.03615896606782   14.88741918060957   13.90003641686152
C        10.57545527115162   13.61083217131762   11.93263011859294
H        11.21818744812009   12.73373313941520   11.95113882912897
H        11.20763881317639   14.49333211807169   11.98343575919846
H        10.03299714989139   13.64010551132273   10.99095613044518
C        10.41398346300708   13.58785796236238   14.42673543730320
H         9.75556133696365   13.62368025667914   15.28994302040415
H        11.08023288509738   14.44488455165171   14.46849967530611
H        11.01128651158084   12.68083841742396   14.48739925813125

