123
CSD_code = ZETQAQ | q = 0 | S = 0 | Stoichiometry = C62H50FeN3O2P5 | MND = 6
Fe        1.90189220280892    1.90583563190207   15.55318065658276
C         0.35203141679405    2.27720862267755   14.82885727616239
O        -0.61466342773516    2.61739076923892   14.32079416791874
C         3.44830600058669    1.71020475507369   16.35405109462186
O         4.39331050014481    1.61274987242165   16.98535088940103
P         2.88174927537571    2.64292838001679   13.70417677934627
P         2.17570052150718    0.22700074254686   14.06094634704876
P         1.34648044756951    0.82336289062291   17.35121432133779
P         2.29022140717175    2.92284656584030   19.08014629374054
P         1.70831749428208    3.79344564746794   16.59035280666771
N         2.51848169962507    1.29989097128116   12.83131604617639
N         1.50877979890201    1.53965899950501   18.78192519758506
N         2.69211867697882    3.93851932042343   17.87178255309962
C         1.37602326059287    3.95184251536687   11.81229038800066
C         1.10149766223751    4.94092706128143   10.88822877429384
C         1.98919924746914    5.99090377283403   10.71557026947717
C         3.15099607105343    6.04952111694153   11.46787927686752
C         3.42876184707747    5.06693027178801   12.39934857760882
C         2.53954102268101    4.01230693204361   12.57211363473559
C         5.47774061218866    1.97947883896117   13.02176105585512
C         6.85221386565472    1.97414066494173   13.17167819953744
C         7.44226786337346    2.72674111370195   14.17400294672352
C         6.66025765473413    3.48772232792199   15.02943136739249
C         5.28610580555699    3.49207765004865   14.88706520514478
C         4.69348241456346    2.73770336947781   13.88135242041225
C        -0.14711161717554   -0.18882974258178   12.62877072142636
C        -1.18342646396375   -0.92923881444704   12.09176704027096
C        -1.21381248592215   -2.30304336187829   12.26561342013351
C        -0.19392986616511   -2.93521927592770   12.95882523843684
C         0.84426828046758   -2.19867240407764   13.49789776490380
C         0.86740198513077   -0.81534221465214   13.34513575609730
C         3.84590527714109   -1.42711800052086   12.71467500324829
C         4.98680628737732   -2.16188192535797   12.46633460271120
C         5.92401805126539   -2.34465637453052   13.47269905289127
C         5.71587373959463   -1.78546587678924   14.72040253867573
C         4.57029322693970   -1.05009943001841   14.97530078339237
C         3.62408962983815   -0.88039386333381   13.97763449569441
C        -0.82237348945322   -0.26296448251706   18.67055689505706
C        -2.04823057927541   -0.89492750952755   18.76086072113995
C        -2.75358204511465   -1.21331108425556   17.61063750333621
C        -2.23345177703314   -0.89900917183740   16.36560506941529
C        -1.01251890134089   -0.25745804243560   16.27133734703879
C        -0.30755933501262    0.06674281413942   17.42254911992376
C         1.95911031150248   -1.80997985593395   16.69685617905288
C         2.66121818802342   -2.99403496529313   16.80970067745362
C         3.69511416900821   -3.10206705749267   17.72687593284115
C         4.01810153125280   -2.02852077752505   18.53996671216158
C         3.31293905560109   -0.84286691424298   18.43594258380023
C         2.28674071854277   -0.72856618994714   17.50651746207099
C         1.72594746383957    5.02820932836708   20.71637355455868
C         0.95985599942931    5.78673043395762   21.57895845560468
C        -0.27860983629946    5.31810032166250   21.99172849867628
C        -0.74796186065188    4.09365600480592   21.54654533832576
C         0.01515187463429    3.33061922601930   20.68112006124542
C         1.25010525668489    3.80261910907951   20.26722446119048
C         5.05095855002244    3.08748755920906   19.56531872091449
C         6.18362642398116    2.76936128160499   20.29355602503972
C         6.08174912205669    1.98059517001771   21.42805327971455
C         4.84691168106296    1.50550507286982   21.84525532666243
C         3.71223132817683    1.82102908008506   21.12328884816372
C         3.81820673636940    2.61035621333217   19.98350355004999
C         1.11072615558205    5.65997049205914   14.65988406223639
C         1.26955350245592    6.85595395885471   13.98853439986564
C         2.36021402408896    7.66553472558359   14.26609637241057
C         3.28184355253987    7.28931439783360   15.22879705565251
C         3.11497800648878    6.10389654225046   15.92209237781453
C         2.03606628044125    5.28078081071815   15.62787390157252
C        -0.97693394306586    3.28311506148001   17.37461235457471
C        -2.13520217565699    3.63598646519858   18.04539632310305
C        -2.26538804472868    4.90266489657724   18.58619408060477
C        -1.23184603778670    5.81923677751608   18.46408898066480
C        -0.07418330904128    5.46890232434657   17.80026033819648
C         0.05259573649811    4.19890136976604   17.23985176898814
H         0.70271272550015    3.11614692271859   11.94144674206977
H         0.19821211261873    4.89241474368680   10.29697428718674
H         1.77801836611003    6.76214892597021    9.98897068218797
H         3.84622249086912    6.86452253846681   11.32676878000991
H         4.33328678059722    5.11396689725281   12.98918103407059
H         4.99308999661699    1.39359803849168   12.25182075445929
H         7.46350042594660    1.37764551722757   12.50966679454178
H         8.51616709741321    2.71716288725128   14.29417101827384
H         7.12460273055187    4.06979657208904   15.81303298909135
H         4.65569929964337    4.06535654193748   15.55507796597254
H        -0.10522774705566    0.88104053197508   12.48127947815748
H        -1.96745143009989   -0.43485854921716   11.53624509846721
H        -2.02549025342211   -2.88327049639268   11.85133011898887
H        -0.20666055823292   -4.00922433156367   13.07808187821083
H         1.65104533914485   -2.69530068655233   14.01865271306285
H         3.11690051629557   -1.25005406277012   11.93389087660788
H         5.15274456325627   -2.58790926479150   11.48704245412550
H         6.81940306278542   -2.91746983788609   13.27877413905808
H         6.44782336842038   -1.91629472379190   15.50442724317761
H         4.41917066783198   -0.62495445475429   15.95431706290539
H        -0.25134575069082   -0.01655105571529   19.55444224832267
H        -2.45506684585765   -1.14562966747483   19.73022044468980
H        -3.71061201208773   -1.70909596373572   17.68489307686660
H        -2.77688079465420   -1.15105154215662   15.46610192214012
H        -0.60286551163832    0.00023769887476   15.30209052325960
H         1.14045741828837   -1.71161190525845   15.99589634245501
H         2.40447606807836   -3.83841070056463   16.18521939248953
H         4.24621139684348   -4.02759657272348   17.81008120584809
H         4.82158123723269   -2.11273680185011   19.25796102912394
H         3.55640563512445   -0.00064399880727   19.07138581750749
H         2.69352384293344    5.36942427996535   20.36961457681241
H         1.32118768034968    6.74258893584469   21.93034545080548
H        -0.88027078604894    5.91248976362232   22.66426470926370
H        -1.71368908405473    3.73417432498455   21.87192038219279
H        -0.33951138441326    2.37821738643808   20.31481188527794
H         5.10909434722891    3.69707222109554   18.67526573228990
H         7.14981794701981    3.13416302582227   19.97542468123725
H         6.96976834972406    1.73298593000559   21.99173005021359
H         4.77407643662955    0.89051896451118   22.73079271260702
H         2.73386441766757    1.46216312357834   21.41902009760236
H         0.25770853258765    5.02532619324451   14.45878893520584
H         0.54453021595800    7.15842831951986   13.24720094343476
H         2.48473047356671    8.59896622973266   13.73677425744518
H         4.12371636587715    7.92958627018547   15.45129625747178
H         3.79693942394695    5.81959119996660   16.71203201778598
H         0.74841937223522    6.16817889888243   17.71598549994593
H        -1.32679195400338    6.80473058896794   18.89663411214796
H        -3.16887743703681    5.17610351273858   19.11138372966054
H        -2.93120864845231    2.91222308317107   18.14866132399800
H        -0.87485222709909    2.28765364096042   16.96272122915767

