63
CSD_code = ZETSUO | q = 0 | S = 0 | Stoichiometry = C27H31Cl2NOPd | MND = 4
Pd       10.71324774211663    2.44989608353418    5.35083771325779
Cl       11.07192411650801    4.65145176599654    5.34843226892302
Cl       10.50327863484134    2.38568688391729    7.56712002923651
O        10.69356219288924    0.22895904547903    5.18259696735131
C        11.31914276222497    1.01845781253799    3.01570077828901
C        13.86732205785809   -1.13440821268376    4.14880346002505
H        13.49957289470352   -1.98822736117101    3.60300528647257
C        11.05289837398047   -1.42745080803267    3.51588106276925
H        11.22285994081169   -2.20917106214771    4.25329721901781
H        11.53658254990562   -1.69307040625011    2.58161045474054
H         9.98140268784352   -1.35155451599144    3.33896166678519
C        10.52821470770103    0.95696023790030    0.65900929166759
H         9.58272851256376    1.35840825218294    0.98632674702484
C        13.01947510730583   -0.07854982614657    4.47231701628305
C        11.24608549978753    5.12984823543470    1.25356499447377
H        12.00841430188566    5.73105188779679    0.78383599768667
C         8.16432979662396    2.78620459302741    3.13400054452952
C        10.60478733937085    3.24932991043560    2.57841786498376
C        11.52989531621693    0.69794456913575    1.59170750737468
C        11.54660900058322   -0.08001388422878    4.06009972046383
C         9.92383157572418    5.51194795324582    1.15395689796860
H         9.65977129970694    6.40472707543300    0.60746782733225
C        11.61566058400963    3.99531166841094    1.96296419491198
C         9.25254087942438    3.61706702872010    2.47911729813609
C         8.93593208178870    4.75844052032810    1.76140363107189
H         7.90705108077865    5.07140061474380    1.68180021711364
C        13.54301027536850    1.00221087039624    5.18351716032783
H        12.91765469334682    1.86148349269670    5.47624100878074
N        10.91988559380178    2.16855365299445    3.41846833984902
C        13.07638989534915    3.63840217711381    2.11287825276526
C        12.74189422078185    0.16447826419421    1.15502887806300
H        13.53659330344786   -0.01474160350786    1.86318930341803
C        15.71151589552247   -0.03015863290486    5.22266158317154
H        16.75142821019971   -0.01244624340186    5.51032243707849
C        10.73337182257335    0.68134289872141   -0.67998515506417
H         9.94764983858639    0.88265942214796   -1.39222417145445
C        13.77904248859402    4.68051654796591    2.98666353843368
H        13.76497832933435    5.65631912258589    2.50887496056716
H        14.81369454079107    4.39001699075139    3.15629140283684
H        13.26994682867845    4.76330922013859    3.94448713174638
C        11.93980541018614    0.15268411683382   -1.10726372829468
H        12.10004208510065   -0.05645081772150   -2.15397652144661
C        13.76081521538397    3.51272041586178    0.74987294962825
H        13.21633526775668    2.82378714029028    0.10693342163991
H        14.77438791338078    3.13886711589593    0.87788984764427
H        13.81633497633254    4.47675221036619    0.25205268507437
C         7.68393083901981    3.44741191330813    4.43503234369866
H         8.48053885699200    3.44217777681481    5.19991786274430
H         6.82695368074292    2.90514100217609    4.83054165599337
H         7.39369251625272    4.47900450341313    4.25027173004628
C        15.20004731211269   -1.10832198157144    4.52228704490773
H        15.83861941294234   -1.93904528856449    4.26177581617589
C        14.87684444383581    1.02343618705096    5.55306213417151
H        15.25742030835968    1.87048022005217    6.10242162477289
C        12.94241179689604   -0.10285707883932   -0.18629673851066
H        13.88850391009653   -0.50729682690586   -0.51325514972104
C         6.97704276211532    2.56563384073593    2.19107786451951
H         6.40451206982591    3.48003667102935    2.06357082002088
H         6.31258937337741    1.81034292776892    2.60538505045640
H         7.30935393750059    2.23041182545514    1.20998036096732
H        11.06210904532112   -0.14153664469607    6.00008579567497
H        13.16519418873190    2.67229225135785    2.62067236514424
H         8.57113770424184    1.79573427839800    3.38980943626694

