57
CSD_code = ZETTEZ | q = 0 | S = 0 | Stoichiometry = C25H27Cl2NOPd | MND = 4
Pd        4.46471995452908   11.92558711425126    0.31679532526453
Cl        5.19331688915142   13.75297115928610   -0.70558549019676
Cl        2.59651852102720   11.82177794588526   -0.87464693955441
O         3.75202695402121   10.18626934037323    1.65456109126142
N         5.98777933528914   11.76567883667914    1.51795312769351
C         5.72205546734927   11.10149634609619    2.58474978601756
C         7.29546908537290   12.05575158499805    1.09506898163179
C         4.37236378433354    9.74443641205844    4.00844112745428
C         9.14222406524521   13.56858972687250    1.00182062470910
H         9.60647785022692   14.50424219810363    1.26899340271891
C         6.57087530974302   10.45179613068242    3.55509672215892
C         5.72670042122232    9.65466201708614    4.36806150833555
C         4.25526078524525   10.74436878314931    2.87463117877181
C         9.24438849210778   11.47064295700141   -0.15560996197507
H         9.78693010451769   10.79109730226693   -0.79269440906287
C         7.93006429675982   10.42970981898593    3.78695167183995
H         8.61512681185390   11.00956627861390    3.18801613787808
C         3.44495846163727   11.98044531581309    3.28895078227187
H         3.40610337638336   12.70780872922896    2.45352286680723
H         3.90388584024669   12.45423696648554    4.15454808964556
H         2.42823760735663   11.68730952727734    3.54927120222539
C         9.83228418191618   12.66647452670841    0.21471817971177
H        10.82953423625059   12.90187436548761   -0.12559670579312
C         3.45047727207200    8.99894494921148    4.68943992948100
H         2.39860766453951    9.02521607452789    4.44651440411404
C         7.97150205405685   11.13570444792558    0.28075729494385
C         7.06749754788775   14.27588867291922    2.27090154167415
H         6.00687843517586   13.99611600561386    2.21156886732906
C         5.22275528783182    8.08448871650092    6.09335001990779
H         5.52741573802794    7.43701406358140    6.90212781106860
C         3.90106307595887    8.16905839864725    5.73539848418446
H         3.16951216086697    7.58133259932078    6.26993733919439
C         7.18427174662757   15.69769302771724    1.72382706157312
H         6.49750538441739   16.35232092099409    2.25544151243584
H         6.92099188367264   15.70408408160301    0.66956257492473
H         8.18926592999793   16.09300484515632    1.84436966601337
C         8.41318371957496    9.62585967476113    4.83153217083916
H         9.47792863905958    9.61553152690822    5.01310960449994
C         6.19785473180791    8.83637553269368    5.40215457092088
C         7.85662966301826   13.28993650972192    1.44066167765896
C         7.29612194365269    9.85095601690116   -0.14962550339903
H         6.54576410530507    9.57163341098022    0.60240417879879
C         7.59333107295247    8.85182250591349    5.61993701093196
H         8.01347711245083    8.24413700798832    6.40762701604220
C         6.57161528390523   10.07848777341033   -1.48615326878965
H         5.78237579707068   10.85037099366879   -1.38884859158970
H         6.10756715398420    9.15217525102012   -1.81961006779845
H         7.27842206535263   10.41052529096291   -2.24374035313488
C         7.51123280707008   14.21311612832070    3.73523542706600
H         7.35600189731634   13.21790013979202    4.14901328769559
H         6.94492039892201   14.92656602897699    4.32971088247028
H         8.56794721940800   14.45785907744139    3.81956403524271
C         8.27475915665257    8.68168651513273   -0.26777725455654
H         7.72226264220906    7.75214082283564   -0.38476481992377
H         8.89162699989826    8.60461425032785    0.62534793035708
H         8.92241601693622    8.79526130467757   -1.13294623005878
H         2.78231556055472   10.17048405047248    1.66535349008098

