113
CSD_code = ZETZED | q = 0 | S = 0 | Stoichiometry = C54H52Cl2P4Ru | MND = 6
Ru        8.36126513515340   -0.00082624025837   12.18037128072839
Cl        8.91820198264880    1.25352671434141   14.17412416910185
P         7.59685017623327    1.84005037592305   11.00702626552869
P        10.22597520724801    0.90482818679083   11.10192514179872
C         6.49073767497207    1.58575969820256    9.57749936059011
C         6.74668826709229    1.71450149373130    8.22068921765905
C         5.74192975146880    1.45480632343863    7.30204560616721
C         4.48228869296140    1.07057958510234    7.72372868491534
C         4.21690477143111    0.94828846557355    9.07907493192437
C         5.21496644536840    1.20486443157432    9.99515590584160
C         6.70458389041634    3.28001686671043   11.68471962670595
C         6.28233183783141    4.31080706545272   10.84888165069860
C         5.58737771935519    5.38264407132324   11.37432720054391
C         5.29851206669291    5.42796640822047   12.73022286287122
C         5.71027199980342    4.40099200229239   13.56153201657211
C         6.41499132285768    3.32974373611049   13.04130500783541
C        10.78152935127339   -0.01602809385353    9.63527838292443
C        11.94750578508039   -0.77326234522095    9.75348143781686
C        12.35400142352183   -1.59890112479078    8.72335254812539
C        11.59267786290150   -1.69541007000923    7.56941004351039
C        10.41481684286151   -0.97677971814492    7.45981460359410
C        10.00262774484337   -0.14994765942677    8.48967132597318
C        11.82238095281241    1.57764735998314   11.67841618977827
C        12.09138504664907    1.71349299007477   13.03435567196269
C        13.28655693765378    2.27332433768346   13.45253501097246
C        14.21310827819851    2.71184568758575   12.52297527959873
C        13.94091924143683    2.59506469074098   11.16819362596375
C        12.75271291593658    2.03209585975806   10.74464865201577
C         9.33086622446470    2.50396327651780   10.56897452550565
C         9.67016737012219    3.11537590714018    9.21514832613044
C         9.62106856127719    3.54517608830602   11.65812402237128
H         9.75686982035459    2.37653045520825    8.42270618478321
H         9.05302263896006    0.35767439013139    8.41719843584489
H        11.35890500975172    1.39310245275993   13.75993066819350
H         5.48638109278312    4.43010229997503   14.61778770089753
H        15.14531122634442    3.15006949133188   12.84894845641026
H        11.90921823134256   -2.34275474252407    6.76443412775786
H        12.54709210614021    1.93533901720277    9.68720213163519
H         5.02635575350275    1.10597572454444   11.06021867108562
H         5.26492333990728    6.18480180899789   10.72578734575769
H         8.91873948460617    3.85561899925150    8.93956400696859
H        10.62948085736218    3.62911252498361    9.29207501885688
H         6.75259192969126    2.53266740394974   13.68831537537888
H         6.49448610211071    4.26624653953103    9.78864014623660
H         7.71491275056649    2.02197271903944    7.86100489731861
H         3.70806484733623    0.86564143609874    6.99898435739659
H        13.48813964110227    2.37147656115018   14.50920910098948
H         5.95109179847967    1.55344102558154    6.24629282574429
H         9.80180844930093   -1.07185141975784    6.57545791079241
H        14.65822915598197    2.94585760457906   10.43982119548408
H        12.53499436386910   -0.71490714145531   10.66087488308706
H         4.75025611234497    6.26661246599246   13.13439827919670
H        13.26199781581279   -2.17579231274897    8.82591872610443
H         3.23628192997657    0.64730567891154    9.41863321517172
H         9.40426354934862    3.14568901833112   12.65200411963993
H        10.66836259289786    3.84653456650201   11.63280581464088
H         9.00796773924993    4.43309879787006   11.50230827492494
Cl        7.80732421685466   -1.25462583384008   10.18696580481067
P         9.12785004003559   -1.83974515153991   13.35516856676293
C        10.23378092652016   -1.58574217134005   14.78481114081420
C         9.97778670615392   -1.71454040877711   16.14159139924516
C        10.98251622291276   -1.45479861775614   17.06023306352482
C        12.24213391783819   -1.07050541463868   16.63854083076388
C        12.50752454252042   -0.94817806068614   15.28319845520712
C        11.50948646053086   -1.20476805006736   14.36712964023450
H        11.69805224817063   -1.10588658386258   13.30205848812874
H        13.48812998993452   -0.64717460935318   14.94362526858995
H        13.01634262997339   -0.86553276979403   17.36328032452393
H        10.77334047848435   -1.55342981292122   18.11597914893881
H         9.00955012048425   -2.02202979226458   16.50124017963162
C        10.01980724413234   -3.27992154200037   12.67746730629851
C        10.44198626564585   -4.31075952762347   13.51329095710302
C        11.13687022362318   -5.38264144568029   12.98783578846988
C        11.42567952530249   -5.42800210325015   11.63192980067808
C        11.01392328328328   -4.40101921503686   10.80062178153370
C        10.30927484240364   -3.32972489725467   11.32086096000083
H         9.97160160772941   -2.53266459252152   10.67385162090408
H        11.23777082770284   -4.43016195547979    9.74435636879185
H        11.97388423646181   -6.26668063746946   11.22774646552789
H        11.45935131923174   -6.18478579412718   13.63638160739924
H        10.22992364081085   -4.26616329410125   14.57354958796400
C         7.39379334728682   -2.50379889282643   13.79306667119482
P         6.49812974510282   -0.90484101038543   13.26055389864744
C         5.94273501375798    0.01605040720476   14.72715449368871
C         4.77679933688903    0.77330837831687   14.60897632117690
C         4.37040447615639    1.59893795137263   15.63912818320101
C         5.13182333204874    1.69541013754751   16.79301089516201
C         6.30969238622104    0.97677717211692   16.90251983261540
C         6.72179206340475    0.14997201283419   15.87263082795234
H         7.67141728509015   -0.35764033496364   15.94496928994998
H         6.92279143124148    1.07184202055005   17.78680532947277
H         4.81536250604737    2.34276292483341   17.59800141882449
H         3.46240287095929    2.17582620330458   15.53662676532429
H         4.18925378583390    0.71495236149151   13.70161327975815
C         4.90179712875154   -1.57753362601953   12.68379913223898
C         4.63282318644367   -1.71342043709543   11.32785823909402
C         3.43771300897362   -2.27335959798481   10.90968170891164
C         2.51121049060154   -2.71194127618904   11.83925711031954
C         2.78341620247900   -2.59515118964886   13.19403948594945
C         3.97156333004078   -2.03208390295989   13.61757510025677
H         4.17723316380195   -1.93536011551763   14.67501582908886
H         2.06614480662492   -2.94596449396604   13.92243210056346
H         1.57902176005427   -3.15019276244529   11.51329423562781
H         3.23611946196092   -2.37148094084954    9.85300504009310
H         5.36524602038137   -1.39297661536583   10.60226432668399
C         7.05427935570233   -3.11523750307727   15.14685722641262
H         6.96750385127599   -2.37645542983915   15.93935331008211
H         7.80565813679728   -3.85550615084831   15.42249841090991
H         6.09496941634916   -3.62899618751307   15.06991417024837
C         7.10336581151244   -3.54508320453685   12.70401854130727
H         7.32010828330489   -3.14564262877394   11.71010730549106
H         6.05605752108718   -3.84642570003900   12.72939878937093
H         7.71643014742708   -4.43303702364641   12.85982772845151

