33
CSD_code = ZEVGIS | q = 0 | S = 0 | Stoichiometry = C10H12N5O5V | MND = 7
V         5.99261984896467    1.66260137434496    3.08106863329215
O         7.52822707597281    1.69189076062723    3.17453697999463
O         5.55719297123205    2.32445365998543    1.51491055224153
O         5.58449264503840    1.01097112303766    1.51182117184260
O         4.13947626528882    1.64799316949140    3.81142810286818
O         3.00743546729530    2.86806893225231    5.29699980138292
N         6.22898708554419    1.60304311525438    5.42174621167423
N         5.83872351110717    3.62998776805434    3.65851049428221
N         4.97928714761818    5.56435100649648    4.15470677302757
N         5.98236230157772   -0.32163978009725    3.59876747563360
N         5.70115770150756   -2.46678389589493    3.82406174403887
C         6.90684720844741    2.86273581361019    5.70554427603675
C         6.16104687705350    3.91140670673764    4.95230417970286
C         5.12419952512786    4.62364060324523    3.20423086010955
C         5.62436885071491    5.12457283934396    5.27711396480958
C         7.01409680814658    0.40589041643998    5.68961427868364
C         6.44872473929229   -0.67540607763943    4.82874050930856
C         6.27483873696171   -2.02238744821270    4.98489330442461
C         5.54078603135286   -1.40178732641298    3.01443146791922
C         4.91061209389489    1.57282457546091    6.02734890770630
C         3.89389428893665    2.10563459084102    4.95442475626285
H         6.94310402242962    3.08790637259004    6.78331430232396
H         7.92216615650071    2.80042453721602    5.29930661352830
H         4.71931514083625    4.67403152002355    2.21077154591113
H         4.44397166691437    6.41480570169477    4.08070618072281
H         5.64322838272396    5.68953174294658    6.18627422090311
H         8.04203517463552    0.59577862632718    5.36074802297863
H         7.01303249605613    0.12387573396975    6.75433406340612
H         5.45185388793177   -3.42146141197008    3.61859804943070
H         6.50802299199082   -2.67983739017332    5.79730451342933
H         5.11769712893284   -1.42798721635793    2.02756360784283
H         4.84649006649329    2.17626640122130    6.94134930142983
H         4.61490570347824    0.54430345554605    6.25452513285078

