62
CSD_code = ZEVMOF | q = 1 | S = 0 | Stoichiometry = C31H25N4OPd(1+) | MND = 4
Pd       -2.32934600220307   28.01669107168105    5.44529001508671
O        -4.09944128215000   31.35639524418747    4.87221209085239
N        -2.29711146194017   30.64459532514098    6.72825290917993
N        -0.75387562361757   32.20792380832297    6.52574437140609
N        -0.49034664654284   28.22463767721837    6.67958864449645
N        -1.56392204447499   26.34481067776433    4.50615806053364
C        -3.23414182871330   29.64588774493492    6.31584277374252
H        -3.84877428223657   29.33256876035664    7.17324522770456
C        -1.43797914321031   31.21722261332399    5.86402382285625
C         0.21903641695897   32.91809377285599    5.89525574800412
H         0.73732120801344   33.66149905952096    6.47906407010332
C         0.50114830997045   32.65511964560350    4.59120130124434
H         1.26359023975976   33.22602472903612    4.08800947063020
C        -0.18470068078443   31.63495618450962    3.89428097744257
H         0.06365633771145   31.44017385621957    2.86395892614174
C        -1.14733340527996   30.89921465610981    4.53033147990354
H        -1.69064072410242   30.08653270571561    4.04010108647799
C        -1.20163762729275   32.24394678596278    7.82663088079407
C        -0.71309345311018   33.15743819458731    8.85407403596469
C        -0.41743358125528   32.66050161877175   10.12258966845087
H        -0.53534631889488   31.60477201140651   10.31819227093372
C         0.03228402097440   33.51064178469392   11.11492783135695
H         0.26109685049719   33.11884897573260   12.09399162650936
C         0.18704535731049   34.86298658245919   10.85491855340631
H         0.53742119874570   35.52528134164172   11.63087538679323
C        -0.11964938604004   35.36538541818986    9.60113786516390
H        -0.01655242153751   36.42061946039600    9.40096608151042
C        -0.56881512153863   34.52065804508943    8.60238462879553
H        -0.84555331650767   34.92611011834631    7.64014868474667
C        -2.16160059643949   31.26931970018185    7.92689236609145
H        -2.75996008437261   31.00477950226051    8.77559024263597
C        -4.11578207998215   30.18978881925648    5.21405721744675
C        -4.84957677298604   29.08674041276011    4.56782101871187
C        -4.13183815368275   27.88099065550766    4.56714667408951
C        -4.69725252080360   26.77769806551024    3.94325825344345
H        -4.18678508780370   25.82098184477258    3.91028128016682
C        -5.95552383698290   26.88192931853288    3.36150320329790
H        -6.39751705758128   26.01001946545407    2.90165784763760
C        -6.64647581537021   28.08374409621139    3.35851396320780
H        -7.61559903986252   28.14534889516733    2.88776935996340
C        -6.09111176868830   29.20093378137867    3.95326919854595
H        -6.60126804324756   30.15220623616570    3.95411500698481
C        -0.79065732680697   28.03487327212783    7.96552678942941
H        -1.69255927783116   27.45718409726978    8.16853852923926
C        -0.01253117307258   28.53137223388007    8.99766805644879
H        -0.29101046315293   28.34966828150620   10.02350498348638
C         1.12514119918341   29.26079537866574    8.68372697506451
H         1.75042900775369   29.67102123382103    9.46170892496835
C         1.44871956343946   29.44037926665399    7.34798674577171
H         2.33355522873502   29.98429628927385    7.05797825484841
C         0.61591744826501   28.89971460381700    6.38092290061637
H         0.84797254734599   29.00260717324854    5.32654552108459
C        -1.03246431262175   26.35097793539363    3.28704557888240
H        -1.00526494653169   27.30789447328279    2.77285043787819
C        -0.54766015553849   25.20164783718866    2.68462147980767
H        -0.12813894215425   25.24577405955930    1.69245040115155
C        -0.62112135791650   24.00232878016553    3.37641388693397
H        -0.25783437357097   23.08808558863652    2.93338631589726
C        -1.17894921459246   24.00013089097713    4.64661416150140
H        -1.26078528279283   23.08804067568543    5.21578142198546
C        -1.64042164605985   25.19437983157265    5.17314676562138
H        -2.10075125277790   25.23570943433386    6.15960774690976

