66
CSD_code = ZEVMUL | q = 1 | S = 0 | Stoichiometry = C32H27N4O2Pd(1+) | MND = 4
C         6.47825013234230   -1.95317401619704   12.66295881224953
H         6.68835213741453   -3.01670169573372   12.69464128184104
C         7.36417014029331   -1.03718616152800   13.20773341250679
H         8.26966065758877   -1.37687233310685   13.68461307196254
C         7.06597701737178    0.31344078593698   13.11943389011505
H         7.73327202947567    1.05272595146147   13.53473037256354
C         5.89800994520320    0.69342050793146   12.47420932368138
H         5.63620991604013    1.73383384978507   12.36550165112569
C         5.06709223691721   -0.29128004434089   11.96722130419848
H         4.13970391779887   -0.03589673567722   11.45492602296453
C         5.53958973159864    0.26490849673616   17.12309758056399
C         5.85547712692330    1.54560771469902   16.67222118740871
H         5.68470104550872    1.79898015619765   15.63619183800438
C         6.39136790276854    2.47643545363783   17.54178211455357
H         6.63575660876884    3.46524167782334   17.18548980846824
C         6.61221657693272    2.14252976041167   18.86845320983642
H         7.02930884384514    2.87078667424853   19.54611605560391
C         6.28604081421794    0.87662018038612   19.32617299926847
H         6.44080316578014    0.61955586480258   20.36258615651139
C         5.75157950917204   -0.06115216746647   18.46139497163539
H         5.46166221892504   -1.03255688390876   18.83437418934106
C         3.94689615454248   -0.51157647442109   15.28394037195409
H         3.36366390453027    0.36916443971856   15.10384314458637
N         5.35753182354496   -2.00661753616257   16.05910298763128
C         6.34516794253229   -2.70867357990184   16.67559615366310
H         6.92711429781670   -2.18544411831678   17.41700416756069
C         6.56207277324083   -4.00532774379590   16.32757293350133
H         7.33658309993002   -4.56513248300959   16.82476153367558
C         5.79269733047155   -4.62135257528934   15.31487931574531
H         5.99079697387814   -5.64716975490043   15.05108352375130
C         4.81263283386703   -3.91329348793842   14.67387020310660
H         4.20325004980587   -4.33747885952566   13.87119694780111
C         4.59176101919588   -2.59021539022296   15.07897166176710
C         1.04360191203914   -4.24387973489117   10.80005286527389
H         1.49708364632196   -4.21268590740930    9.81673010218198
C         1.66999629474896   -3.65452908886106   11.88839412366898
C        -0.19668435273721   -4.86867511911865   10.96176453519344
C        -0.79098683490108   -4.93415831019570   12.22882586596382
H        -1.73929452986708   -5.43869872692719   12.31808002742566
C        -0.16997644286186   -4.37081312695859   13.31617720376911
H        -0.61063667518822   -4.42256558129217   14.29984229822782
C         1.05007715938249   -3.71610030678865   13.14571651283197
C         1.82925342556072   -3.09892099822519   14.22079602079388
C        -0.38843677900898   -5.42837618189825    8.65025322044287
H        -0.26611954102002   -4.40586343661007    8.27901003309855
H        -1.12796105106313   -5.94481322860708    8.04113134043983
H         0.56702483773311   -5.95947594784100    8.58458884170830
C         2.71556625074774   -2.00004682935466   13.65557351435116
H         2.10494519970693   -1.10869722117819   13.44331680947366
C         3.93219185858353   -2.91153579031592    9.03789315642670
H         3.51158923601154   -1.91603531306535    9.17555602920455
C         4.24463286242996   -3.39017668444264    7.77691280524660
H         4.08374680411524   -2.77467147577246    6.90634932595805
C         4.75903470244606   -4.67324948681143    7.65915755484489
H         5.00785455975623   -5.07969909488950    6.69116839976023
C         4.94143997918580   -5.42467839932926    8.81014193113406
H         5.33406364826473   -6.42761262631447    8.76188509401476
C         4.60222922992844   -4.86749565985566   10.03234793609276
H         4.71719534242721   -5.42801460458989   10.95593863572295
N         5.34484965855702   -1.59199331914190   12.06805784392663
N         3.73115008832957   -1.66890440177233   14.60662454132605
C         4.95985531747986   -0.69592536308562   16.19049643632783
N         4.11024894252989   -3.63675045794249   10.14097541889951
O        -0.90067158695417   -5.44381021340562    9.96106228806731
O         1.87334197346015   -3.43376185426295   15.38948171404795
Pd        3.48242498564595   -2.78483498120422   11.92192537498710

