57
CSD_code = ZEVNET | q = 0 | S = 0 | Stoichiometry = C12H38F2P4W | MND = 8
W        -0.00029453280549    9.76939844694344    0.63351065139713
F         0.00068273412045   11.51122246533980   -0.75244693871842
F        -0.00003551925696    9.04275304500901   -1.41341655002551
P        -0.00004850827573    7.28369342159818    0.83540535067233
P         0.00020372687694   12.05298819769648    1.58311985601054
P        -2.26103048536768    9.82601697091489   -0.45607310775653
C        -0.00005237410623    6.09707246909586   -0.57158944305219
C        -1.37465901660820    6.54945666191930    1.84695477803277
C         0.00002101940443   12.19768314747352    3.42804886608554
C        -1.38877079214992   13.21477330114202    1.21828541123253
C        -3.78180107798717   10.13146545838919    0.54894812158746
C        -2.86359148869603    8.31894910351556   -1.35057225973895
C        -2.54647746251193   11.01715946356995   -1.82929937618361
H        -0.00004198841588    5.07424446843192   -0.19705096870527
H         0.87995818589615    6.26412523957508   -1.18580684010123
H        -0.88008025285613    6.26411627634912   -1.18578156633858
H        -1.25094733874699    5.47385975330596    1.97055626491352
H        -2.33401413461652    6.75412797636167    1.37635145402911
H        -1.36375408733771    7.03612442667016    2.82087713361671
H        -0.00005122744222   13.23603492260190    3.75803965054889
H         0.88119022259572   11.69063696160317    3.81655981198232
H        -0.88117539661216   11.69057322375148    3.81642037957567
H        -1.22949777477983   14.16860810778263    1.71995564020267
H        -2.32301412240028   12.77670922036244    1.56319121631948
H        -1.43693357065849   13.37204073104975    0.14452899024789
H        -4.67940527259322   10.08664962991482   -0.06612778769693
H        -3.72065182126793   11.10888876074060    1.01953438489447
H        -3.84132508666481    9.38094628187352    1.33406978546506
H        -3.84042076555534    8.51024725053858   -1.79369214956799
H        -2.94252853553982    7.47958641812722   -0.66334128662914
H        -2.15295687878948    8.07566046198365   -2.13629011066363
H        -3.52654142738855   10.85879210875127   -2.27844375386974
H        -1.76286195078606   10.86419265872659   -2.56853809878022
H        -2.46865198490272   12.03433820974992   -1.45442377939561
H        -1.05651457830730    9.55958681104276    1.98157700439759
C         1.37460532370060    6.54943880540529    1.84688554214498
H         1.25088750555457    5.47384292613859    1.97048020000239
H         2.33395626547772    6.75409361585979    1.37626604126987
H         1.36374738445726    7.03608617080037    2.82081520993636
C         1.38899329478536   13.21496894730094    1.21832264496820
H         1.22963017539000   14.16879146079353    1.71999248161547
H         2.32324435210502   12.77693181142186    1.56323975959913
H         1.43711846582190   13.37220422021774    0.14456033485654
P         2.26075090801697    9.82597056394608   -0.45583068268835
C         3.78170457909526   10.13143893020252    0.54896817294410
H         4.67939860577525   10.08714367202787   -0.06646194798161
H         3.72022536491865   11.10886406464295    1.01991618593212
H         3.84159819059260    9.38044732282068    1.33394794906511
C         2.86354481032905    8.31905441042674   -1.35045246299315
H         3.84038440673218    8.51038593726366   -1.79355495994968
H         2.94250973317160    7.47965575628388   -0.66327317931648
H         2.15294966972139    8.07574038323449   -2.13619653344514
C         2.54640650950486   11.01706740497554   -1.82908555507754
H         3.52647043293633   10.85865028964522   -2.27823531831182
H         1.76284451719153   10.86415088853403   -2.56838032230922
H         2.46867529859094   12.03429454288623   -1.45428808002474
H         1.05642777066206    9.56265582327065    1.98172378577432

