57
CSD_code = ZEVNUJ | q = 1 | S = 0 | Stoichiometry = C24H28CuN4(1+) | MND = 4
Cu       10.39658086588485    1.65812491774429    8.05500598078413
N         9.38647962420221    0.91379715366320    6.18843348614525
N         8.79355237934702    2.72122724239444    8.62215788561351
N        11.41793953040344    3.14926749364998    7.09482038549158
N        11.90451558719179   -0.45939607612123    9.59346180811937
C        11.28322644325451    0.34509434199548    9.02544432941495
C        12.63103437538297   -1.37877797229740   10.26981312515796
C        12.37322777515432   -2.74026287946766   10.05359346612118
C        13.13104643136658   -3.66024098507201   10.75882587381407
C        14.10881839877056   -3.24201343611887   11.64639999996518
C        14.34867564248523   -1.89239104539312   11.84491861671937
C        13.61748214733099   -0.93424451627202   11.16266941718995
C        11.31084600512743   -3.15970018653645    9.08729554294882
C        13.85571316260081    0.53048397682585   11.35063104016461
C         9.87116135035448   -0.45752523200784    6.05585612513399
C         8.91387930417184    3.93420224157715    9.15281356627859
C         7.82586886665516    4.69254523911818    9.54063680290237
C         6.55579217498752    4.16198350954156    9.36464384128218
C         6.43403539925584    2.89919913020227    8.81123500328669
C         7.57917551549091    2.19552565292404    8.45423051040764
C         7.50051367844971    0.84022099892893    7.82128414129094
C         7.92924257278469    0.90758435611610    6.34631868111291
C        12.55351261244247    3.53887091130563    7.66635279455865
C        13.40162151890767    4.47130494676201    7.09993417638502
C        13.05295139554721    5.01703691672070    5.87320696265485
C        11.87152555922716    4.60997593550842    5.27906924550696
C        11.06662531043705    3.67382072937610    5.92047926522199
C         9.77834212898666    3.21291201210291    5.30694984927553
C         9.79101173290693    1.70258369046482    5.02445612931140
H        12.95303923683845   -4.71425299510585   10.61160439704721
H        14.68842847549550   -3.97353348901971   12.18723478795309
H        15.11314535246144   -1.57755278674006   12.53832350682750
H        11.53881511815550   -2.79465658992870    8.08559562500244
H        11.23278122665620   -4.24214968150703    9.05311495051249
H        10.34422165074607   -2.74946921378460    9.37995165609696
H        14.62072429991364    0.69897158055789   12.10260323585352
H        14.18134736415141    0.98565555024436   10.41468331144854
H        12.94002743853668    1.03226232574805   11.66365554885012
H         9.50689002782532   -0.92760089374401    5.13333188496753
H        10.95941915776133   -0.46319648800559    6.04660970366729
H         9.53083236180236   -1.04942162814267    6.90262913357108
H         9.92246064408611    4.30574818651584    9.26945812364485
H         7.96877132287712    5.67013869937876    9.97085304944540
H         5.67951223603525    4.72113526829145    9.65370278219398
H         5.46201653652475    2.45665534977221    8.66037438946839
H         8.15929034451629    0.15255410567893    8.35497113711281
H         6.47897760420019    0.46585232166379    7.88216037569245
H         7.50893402202132    1.81550944116213    5.90808554909748
H         7.49740926334088    0.05448251210767    5.80658278080592
H        12.78472128767281    3.08518382032200    8.61977351606959
H        14.30918881671627    4.76066539859155    7.60376408396624
H        13.68796081197999    5.74424246747678    5.39138011971453
H        11.56919055947746    5.01499802549455    4.32617800042288
H         8.95977470645026    3.44778644706221    5.99076120174180
H         9.61097385674773    3.75373392428428    4.37562901203963
H        10.80604406770025    1.40752209041591    4.74832052897830
H         9.13760472020770    1.48422718356639    4.16782955554522

