83
CSD_code = ZEVVED | q = 0 | S = 0 | Stoichiometry = C35H40Cl2NO2P2Rh | MND = 6
Rh        8.43984456945156    0.32237214332797    4.44360190128979
P         9.53294656644065    0.28597003390308    2.45840434243681
P         9.90097960292729   -1.17883797526655    5.29944650342308
C         9.22055858864112    1.81571061571825    1.53325137591983
C         9.97634484714555    2.96300697387312    1.75046649084442
H        10.80216606569508    2.94684053338746    2.44510479910219
C         9.64523585308449    4.14139929615125    1.10445686803017
H        10.23359369494321    5.03047095492462    1.27957372828325
C         8.55720935255654    4.18797388379872    0.24943115179575
H         8.29698388318976    5.11241156156375   -0.24590671594145
C         7.79367025512452    3.05000270989986    0.04105091870746
H         6.93578719022664    3.08593419131945   -0.61527344322419
C         8.11876027449525    1.86936860049797    0.68163016353800
H         7.51484033008772    0.98530946683419    0.53413711032720
C         9.38197139553311   -1.01304546569412    1.18973334557566
C         9.72439983956019   -0.75264266542678   -0.13267203246768
H        10.00932855783045    0.24771632743282   -0.42978750074595
C         9.69250709801822   -1.76914121825536   -1.06949785786725
H         9.95209158389707   -1.56020814702141   -2.09730723450981
C         9.33013167791369   -3.05278138889018   -0.69380354357209
H         9.30467997577452   -3.84321495730971   -1.42950687874547
C         9.00075243249006   -3.31839324171033    0.62458611540607
H         8.72013171032503   -4.31752050612122    0.92500938171825
C         9.02628442060217   -2.30103031152770    1.56122525656991
H         8.76940352234528   -2.50006220966294    2.58987702399483
C         9.50970729697532   -2.94504300578359    5.10668311615254
C        10.18664811387400   -3.80558165019678    4.25188846515675
H        11.00905966202810   -3.43709602834853    3.65920511896323
C         9.78829898688076   -5.12775702424792    4.14577238698145
H        10.31986928754461   -5.79476130064079    3.48244562282655
C         8.71239012487731   -5.59523240687390    4.88150974681980
H         8.40518550364893   -6.62698115539132    4.79458571930699
C         8.02389123123399   -4.73613906885875    5.72494348420345
H         7.17933184286744   -5.09745478335003    6.29310888952199
C         8.41682177060282   -3.41598328015600    5.83273063333470
H         7.88944365069950   -2.72922862009519    6.48310754917239
C        10.26522687079478   -1.10509317806751    7.08614042755630
C        10.72601778348300   -2.23665554911682    7.75618168267821
H        10.83682781170086   -3.17314317421650    7.22681726932125
C        11.03555022150336   -2.16988703718405    9.10181229974284
H        11.38930413647498   -3.05295039744906    9.61439100984893
C        10.89257858576555   -0.97667865159140    9.79165699128280
H        11.12962405784568   -0.93030188566449   10.84462542159110
C        10.45075770541598    0.15395700167063    9.12625802108734
H        10.34682390090403    1.08841878383891    9.65800419175257
C        10.14216286225566    0.09378589350844    7.77859913078010
H         9.81274014905587    0.97925638343832    7.25782580142660
N        11.72719179252165   -1.06170148449283    3.22765875846040
C        11.37694872844770    0.21377548330952    2.63023660340237
H        11.78399143682712    0.28211435278049    1.61832625935869
H        11.73274418270699    1.06209562537832    3.23052813410632
C        11.63913730517270   -1.01366296950024    4.67201721092168
H        12.01732991023012   -0.06572956582314    5.09309131524506
H        12.20590721615394   -1.84008326606613    5.11623208790240
C        12.97853277196967   -1.64172480242254    2.73482617226339
H        13.16674421932575   -2.52544263142720    3.35802592507103
C        14.18772131274068   -0.70898070708750    2.86479311678923
H        14.08571834033838    0.15559753215323    2.21387815659383
H        15.09436211413981   -1.24053462582706    2.58707129080878
H        14.29337274478346   -0.36122355281932    3.88998697257153
C        12.81064457068221   -2.13069307094034    1.29584461172217
H        11.89393023925090   -2.70693307687031    1.20000945784616
H        13.65365605273977   -2.76094395175481    1.02404883054042
H        12.76794010891163   -1.30433816920334    0.59137927590609
O         7.26668667348050    1.82427364129806    3.68396281487820
O         7.54236703588827    0.54398922551941    6.28661967663356
C         5.91078915283642    3.74167270208026    3.62380082126280
H         6.17930296527756    3.68031933673128    2.57179290021109
H         6.26153188597946    4.68756789994631    4.03144455234909
H         4.82906412083183    3.69777956739986    3.73099713282391
C         6.55480480581190    2.59644555184732    4.37434674120519
C         6.29308104734534    2.50008369492330    5.74586020549873
H         5.66293823212529    3.25838304555003    6.18407214780119
C         6.78987124212222    1.51087939070128    6.59374090460617
C         6.38554286158150    1.58148155281557    8.05190713215594
H         5.30174772274004    1.57522126952410    8.14293255843419
H         6.76223105541535    2.50357507798876    8.48939744406619
H         6.80417083220353    0.73277388612324    8.58739433212160
Cl        6.34648260692179   -0.73496789320254    2.31063228961988
Cl       10.07225969088376    2.01725064294352    4.98562756124538
C         6.87925279345727   -0.95997155543986    3.97873859861203
H         7.08305062724577   -2.02807085641675    4.08821002891277
H         6.01398675625699   -0.70743637072197    4.60214372867954

