73
CSD_code = ZEVXAZ | q = 1 | S = 0 | Stoichiometry = C35H33MoO2P2(1+) | MND = 9
Mo        1.13640049701107   11.53404027968414   13.20089610258532
P         3.53847631268212   11.33734040505610   13.43750855476584
P         1.78430350541598   11.53437115070601   15.56198239127585
O         1.07550306466998    8.48559142207309   13.60571988489821
O         1.53929188812255   11.19676469158922   10.16365381629830
C        -0.50039011235449   13.82160748653345   14.07240895642151
C         0.90229459505665   13.83717810988750   13.52088541009601
C         1.18413899819905   13.71979214722708   12.19081042138371
C         0.17400138254203   13.85552679965154   11.07876096420888
C        -1.04002213346002   12.91873899501488   11.17841630599651
C        -0.75396723909083   11.60988380934388   11.90345260449775
C        -1.13420895159890   11.44295033062129   13.27522302480863
C        -0.83459631216506   12.35861716602225   14.26597919286120
C         1.09402767706349    9.61971347410839   13.47046537305490
C         1.37084033202436   11.31804468244103   11.28493583882632
C         1.88733292348289   13.00280805736166   16.62120047242938
C         0.95022013647143   13.19038597378152   17.63464464594426
C         0.98404275329978   14.34083043955970   18.40153839135839
C         1.94015467200962   15.31354410410996   18.15576886313855
C         2.86157824017180   15.14022746390369   17.13486399005816
C         2.83267784899600   13.99310378330161   16.36331680054728
C         1.22022827853610   10.26920866290701   16.72873991343668
C         0.06076309536208    9.53721022061303   16.50841160323660
C        -0.32942327535577    8.57119766749521   17.42037755179467
C         0.43407933631633    8.33679717857382   18.55131070338092
C         1.59014006113067    9.06997220452064   18.77737313526234
C         1.98443026655970   10.03495563929148   17.87188736941883
C         4.44265334510974    9.91881978132136   12.76634247434492
C         3.86992813606352    9.06331838094381   11.83414634263258
C         4.59781127214893    7.98887543254338   11.35153406730947
C         5.89075526125557    7.76881530469729   11.79633217943108
C         6.46556542122001    8.62446374434568   12.72481537329890
C         5.74751710798817    9.70057241542962   13.20812320677200
C         4.69337702965087   12.68079566402099   13.03953705682714
C         5.57146438124878   13.30983926738854   13.91384620544936
C         6.40975629871118   14.30752521558506   13.44336743649012
C         6.38389850846620   14.67355327765771   12.10840258302908
C         5.52511605361551   14.03267080715890   11.22715375605822
C         4.68382049016201   13.04102257037793   11.69113691173386
C         3.54675391564815   11.04937643358335   15.25947246446476
H        -1.21009518297420   14.33099542313651   13.41575118747046
H        -0.52256144528892   14.32610421276426   15.04074756376538
H         1.67118675447953   14.22368127961112   14.18196192585343
H         2.19733264993373   13.97349898685401   11.88691452128348
H         0.68367924841739   13.67897129251282   10.12925675233857
H        -0.16763016762506   14.89645164773372   11.06188369629452
H        -1.87769294272282   13.41793769781751   11.67221814793568
H        -1.37291778567339   12.68519652625229   10.16494399754824
H        -1.03160105551134   10.74315971225011   11.30018088567266
H        -1.59210898242125   10.49878933233677   13.56638237910973
H        -1.15477809043092   12.09893845075827   15.27470651815050
H         0.20660324099205   12.42831858385771   17.82744774902324
H         0.26289915619634   14.47847659503356   19.19265977443308
H         1.96553068446979   16.20864549461818   18.75747971881335
H         3.60163244831516   15.90110734128897   16.93749579463379
H         3.54415969102449   13.86674825893945   15.55578849674978
H        -0.53464600016996    9.71876160317350   15.62327025054624
H        -1.22907951697811    8.00101430704392   17.24632145718881
H         0.12907368386354    7.58236415995356   19.25973853415027
H         2.18231289580079    8.88739400465809   19.66106980524388
H         2.88024087907751   10.61731045664401   18.04574762182236
H         2.85914780332987    9.23882350192695   11.49103485676167
H         4.15378827526836    7.32347336342459   10.62726471054935
H         6.45453213138526    6.93010679700973   11.41817262060003
H         7.47433209389610    8.45200219585942   13.06786458147154
H         6.19127088429695   10.37980685770778   13.92481869070042
H         5.62529781954739   13.02483066924839   14.95539659106381
H         7.09063944813275   14.79594501581970   14.12410149388788
H         7.04011124564478   15.45177016057130   11.75106952295121
H         5.51685881062935   14.30547582554838   10.18295665376822
H         4.01823956481927   12.51412677560172   11.01503743928985
H         3.65361569281686    9.97144790669915   15.43877053567936
H         4.28959100497957   11.59617492286502   15.84590318538916

