68
CSD_code = ZEVZEF | q = 1 | S = 0 | Stoichiometry = C28H31O4P4Pt(1+) | MND = 4
Pt        5.73772539453647    3.89837015470662    4.18426546489099
P         7.64330520734103    3.88340199071593    2.93956326037630
P         4.59971594705676    4.06680300952758    2.15855327244854
P         4.03310992083224    3.77116735338581    5.69739252542557
P         7.13435305714999    3.63042712155403    5.99050556865508
O         8.65191815301979    2.71327180116407    3.20711047449623
O         3.81819789252547    2.78139087800352    1.60659766714875
O         3.24326693798232    2.37894331257247    5.68473452457585
O         8.31135408416653    2.73292080375184    5.87628569086465
C         7.17507782792002    3.63418789123687    1.17034536932813
C         5.88854416960077    4.38922897993623    0.85238719066796
C         4.73062621101434    3.88793853223095    7.40743241505116
C         6.06662591230879    3.16341844346241    7.44185188784165
C         8.57071602231821    5.43411667863132    3.02218409048611
C         9.94634512949121    5.44311177059304    3.21128218706764
C        10.61040914720680    6.65129878757269    3.32937471777815
C         9.90602041486096    7.84220204537146    3.26090352671692
C         8.53168790637770    7.83309842684312    3.07744123034851
C         7.86248752554164    6.63018679071960    2.96789757508752
C         3.35823459798898    5.34862612720484    1.91165264107265
C         2.25489977243503    5.18887774879854    1.08506211351274
C         1.32770347969440    6.21126945064130    0.98673107590267
C         1.50012282748270    7.38268625007683    1.70624418461729
C         2.59996370106811    7.53994205166357    2.53603272906281
C         3.52417909407002    6.52006579836451    2.64322965173827
C         2.64709435669952    4.92116347295453    5.57432121166293
C         1.55008348790562    4.56029434379715    4.79799555531812
C         0.51930574797080    5.45906877651764    4.59931496896655
C         0.58509030171215    6.72527707257189    5.15784833079545
C         1.68514128603651    7.09375424005136    5.91508819636833
C         2.72085821089460    6.19973712403669    6.11697356033919
C         7.59505016964046    5.36148421525835    6.31551480391758
C         6.72683070068390    6.37226179878714    5.92009581682227
C         7.06779842059101    7.69526278035733    6.12350817328032
C         8.28782675950698    8.00806696165962    6.70448666414287
C         9.16456889288533    7.00240820272772    7.07759314839239
C         8.81908661888543    5.67619400903075    6.88462255237939
H         8.72077005763126    2.54697102838528    4.18621911951304
H         4.23044335415922    1.93182747066495    1.78524699951634
H         3.79784032765932    1.59329025985744    5.66114393546040
H         7.04602813287950    2.55460594886693    1.03940220661420
H         7.99847920877982    3.95353072468342    0.52674211137645
H         6.07879080981388    5.46435030656157    0.82543508025982
H         5.47867794918748    4.09276337507791   -0.11737110875597
H         4.00879815534953    3.45319811551654    8.10488069748051
H         4.87467915465472    4.93756998104386    7.66586624013765
H         6.62840199001355    3.38163190039584    8.35430455372736
H         5.94431772830776    2.07631703256838    7.38575883122626
H        10.48629014398368    4.50912998578710    3.26340456941536
H        11.67927507974276    6.66353002295639    3.47688704008946
H        10.42809899927647    8.78186890267035    3.35456903580329
H         7.98622075874195    8.76314064163142    3.02785570298244
H         6.78524839070751    6.60428830869621    2.84591683665176
H         2.12542733403379    4.27078982567599    0.53358623452958
H         0.46752438862860    6.09389412618598    0.34564033639205
H         0.77274709622021    8.17544002880206    1.62411497215774
H         2.72793366605091    8.45118246356856    3.09967321685134
H         4.38007964393214    6.61269692522166    3.30453702586041
H         1.50438470485669    3.57251784016259    4.36495225795632
H        -0.33532935117245    5.17270496499447    4.00613278023583
H        -0.22115935099925    7.42546572192972    5.00330064964416
H         1.73621906568450    8.08018649847643    6.35045571918128
H         3.57749851801362    6.49733403603651    6.70442803145591
H         5.77648374792122    6.10567103478128    5.44460669761055
H         6.39284477675429    8.48428088517745    5.82623075877995
H         8.55745402054673    9.04146758476055    6.85946013902722
H        10.11663928482830    7.25306567513824    7.51961870869152
H         9.48746692583174    4.87426318662095    7.16267660359499

