107
CSD_code = ZEWBAG | q = 0 | S = 0 | Stoichiometry = C46H55N3PdS2 | MND = 4
Pd        4.07733747926756   11.73411479675434    8.75337680773139
S         3.90066193865593   10.17346044086676    6.96052818995328
S         4.31125152670758   13.25328945377364   10.57628808056655
N         3.42568776174252   13.72675979087881    6.63224819582314
N         1.82275769622026   13.54745403081779    8.05377452554295
N         5.16373137231452   10.31406723762225    9.83804610716112
C         3.04756555785827   13.07329602980082    7.74865293411851
C         2.44458104743655   14.60472593898641    6.24225981160837
H         2.54862696720293   15.22858253560651    5.37886163949343
C         1.43959437230133   14.49405242771249    7.13605886198676
H         0.49505623637521   14.99401195703784    7.19269210405937
C         6.46931324928336   10.48905792256538   10.04805106888032
C         7.21238159730168    9.56981123647931   10.77655615839703
H         8.26658169134214    9.73871569111954   10.93030203377086
C         6.58495026833844    8.45193034808247   11.29434130206837
H         7.14097116689559    7.72345918431846   11.86523945091851
C         5.23149945953128    8.28490356317044   11.06646424421682
H         4.70348612539164    7.42668937505947   11.45144456028929
C         4.54395527161766    9.23966031817708   10.32916783793278
C         4.63050964454099   13.54789038123794    5.89025295250167
C         5.82263200610645   14.10972987895589    6.37114083470550
C         6.96085459057070   13.98993746813623    5.58405817250039
H         7.89211721575714   14.41696024966415    5.91753791369007
C         6.91851478213176   13.33625887592810    4.36613924926116
H         7.81524503635487   13.25299948585175    3.76989758260276
C         5.73380774096455   12.79787236283758    3.90661084556844
H         5.71443410589785   12.29935411529807    2.95080244578163
C         4.56607212386396   12.89574426100943    4.65377851915967
C         5.84414823442418   14.87189545263079    7.67882047202809
H         5.24651123323912   14.31413117505726    8.41487420257229
C         7.24548968227591   15.05346578171490    8.26199554317521
H         7.15801837888266   15.39564709096716    9.29024389002373
H         7.80731348640774   15.80100459494796    7.70487851982954
H         7.80147046291055   14.12051362893226    8.26003608475097
C         5.20978181958956   16.25537189829532    7.49052092878887
H         4.17324263119588   16.18736089815577    7.17160998141993
H         5.76281901886287   16.82310895027415    6.74354534147797
H         5.23864872946072   16.79901580839374    8.43168240887993
C         3.27323232818749   12.34453014050146    4.09763850370988
H         2.52223774654101   12.32388351931086    4.89262014385437
C         2.77343082928176   13.24517697881331    2.96296204602530
H         2.63744651287544   14.27106075579928    3.29775913108334
H         1.82059279287013   12.87777910658206    2.58878233670821
H         3.48690347370897   13.24981571021436    2.14199366453942
C         3.42845639622429   10.91054879245615    3.59033244737578
H         3.82019618496030   10.27710442189509    4.38087723515864
H         4.09233103023311   10.85636082315015    2.73197955278850
H         2.45659421506848   10.52370520514042    3.29238219240789
C         0.99662857364460   13.15819316290606    9.14918181474133
C         0.79132861674281   14.06237799883814   10.19728970216811
C        -0.07222092975375   13.68984348506406   11.22081015023702
H        -0.24802790716298   14.36621014949250   12.04180867552059
C        -0.71403358624821   12.46841526732260   11.20015386400523
H        -1.38139387522057   12.19655697137987   12.00469615718137
C        -0.51632389841432   11.59562298132995   10.14586652311450
H        -1.04337444729786   10.65599859984058   10.13746335535167
C         0.33688022448179   11.91999466130029    9.09901823360226
C         1.43406769414896   15.42996188594867   10.22370580607282
H         2.22349124907178   15.46853680441535    9.46747332511186
C         0.38296199567979   16.49879799789192    9.90493956311850
H        -0.09445132985903   16.31669988486274    8.94470460765589
H         0.84839723670407   17.48130395312574    9.87556914658092
H        -0.39083770691901   16.50731035767048   10.66933020390534
C         2.08772963034603   15.73477109451695   11.57195673165269
H         2.80436055004999   14.95828461854749   11.82270870334175
H         1.35283302423005   15.80755409729705   12.36893840950061
H         2.61835989993311   16.68222083627074   11.51207220741120
C         0.49771473224540   11.00496810281077    7.90338061380405
H         1.56001518578379   10.98184893052124    7.62211653473950
C         0.06067481929648    9.56364625844244    8.16424116623988
H         0.47630746014484    9.18361554129318    9.09262668867500
H         0.41650383741869    8.93586469957904    7.35105504452122
H        -1.02419217143910    9.48369119099024    8.20284934434110
C        -0.30654955654424   11.55169447793672    6.71727027527613
H         0.02568552584239   12.54333107846909    6.42183178442673
H        -1.36330673513015   11.60691042169312    6.97485194651751
H        -0.19167290015575   10.88787366657143    5.86378755303086
C         7.09587585844125   11.72845880423524    9.49378452807807
H         6.46064393160595   12.13526464319109    8.68862346319246
H         8.09446430942346   11.51937922325761    9.11614578264406
H         7.16614178624151   12.48111293277186   10.28151382959215
C         3.08693044806979    9.08558515785245   10.02809928490739
H         2.65870594726842   10.06522686373608    9.75410137528699
H         2.55838256459129    8.66925033733669   10.88292298233818
H         2.96539445841990    8.41430704146654    9.17553609922263
C         5.53652594707181    9.55549639705521    7.02086025706412
C         6.60513648017121   10.37708480424893    6.67050492667080
H         6.40525879469194   11.39490082056465    6.36083807081449
C         7.89653689975646    9.89016024543347    6.71487434160570
H         8.71937965424900   10.53607869060481    6.44021072596186
C         8.13913083963448    8.58231676811232    7.10359271580731
H         9.15082961040936    8.20542537893871    7.14471951605818
C         7.07565533566238    7.75590349214655    7.42944062175123
H         7.25680629439372    6.73168202535815    7.72433942584057
C         5.78060318413431    8.23203691046493    7.38017496420636
H         4.94867535264504    7.58680038738183    7.62531893197807
C         4.06446691787232   12.11128307807806   11.87873789803791
C         2.82299342514945   11.50306607999824   12.04824739221991
H         2.01912103404203   11.75067766106580   11.36668560955118
C         2.62719276537313   10.60336585592526   13.07720459272104
H         1.65899061865897   10.13745622418872   13.20058911983829
C         3.66013144767201   10.30158868150358   13.95029320880822
H         3.50695285561875    9.59181829111784   14.75028850451167
C         4.88895227840571   10.92366637847987   13.79846492106011
H         5.69653088170476   10.70047573758092   14.48169120610197
C         5.09139541557303   11.83020900216851   12.77698608278429
H         6.04639623249630   12.32335281845065   12.66190443254136

