72
CSD_code = ZEWDUA | q = 0 | S = 0 | Stoichiometry = C36H29Cl2N2P2Re | MND = 6
Re       -0.65465526858473    4.62519043100021    4.75045753891982
P         0.61133700312181    6.60662808874237    4.00266660713335
P         0.27752200428356    2.80643000795578    3.32632029987153
Cl       -2.02439265357956    3.02809499180178    5.77644619716191
Cl       -2.18977456268801    5.07292929827479    3.22471735432512
N        -1.30325240673425    5.94471909884694    6.08729298223863
N         0.85598446528743    4.13148000813595    5.61507984060591
C         2.40000651031062    6.44014269033184    4.26198455363543
C         3.09698038559965    5.55539595550837    3.43980996921057
C         4.44044624362179    5.31850361874124    3.65576926781348
C         5.09495465247069    5.94921650738042    4.70224073440018
C         4.40173291862363    6.81410475118361    5.53181885539257
C         3.05602228674694    7.05868685889667    5.31847001358308
C         0.41456354036449    7.51093914503533    2.44242674488385
C        -0.86198510497415    7.98792515511767    2.15113707824996
C        -1.09775238484190    8.65547102507091    0.96507930814779
C        -0.06338552023917    8.85353319090039    0.06372555639884
C         1.20768290182066    8.38560001789079    0.35405420781291
C         1.45141850408666    7.71147857249126    1.53766205927694
C        -0.01544186432512    7.76807193123084    5.23316563473850
C         0.33744457566329    9.11147273737047    5.25460309055929
C        -0.19092231888640    9.95283802608346    6.21469740066794
C        -1.08458089023871    9.44450960200892    7.15315694702688
C        -1.45688407420667    8.12020176816307    7.13652827245100
C        -0.94061160705389    7.23770374045279    6.16784091889577
C         0.72373259108331    2.97177135581144    1.57226960722911
C         1.16202930133064    1.89189541706275    0.81171969271972
C         1.52177313405141    2.08518499218842   -0.50940580817308
C         1.44131239257062    3.34676186095944   -1.07940254383882
C         0.98758316709859    4.41997970967747   -0.33042785153093
C         0.62734148745304    4.23087726281128    0.99134270877394
C        -0.50948859307307    1.17785951890832    3.40587701904771
C        -1.48716309756825    0.85875347251332    2.46673386188700
C        -2.17930646987049   -0.33252133924652    2.57212029253288
C        -1.91007331653460   -1.20087785251756    3.61824633245635
C        -0.95252823431636   -0.87448933197636    4.56481411901593
C        -0.25549340268199    0.31550599098515    4.46749984815400
C         1.86730614358526    2.58508889476282    4.19369527101224
C         2.93326760882987    1.78481774362908    3.83677599909764
C         4.06905187297652    1.75288319230529    4.63392098031046
C         4.13415390356845    2.51725816890297    5.79207286227496
C         3.08244494763923    3.32428778888673    6.17130028946166
C         1.92664781076420    3.38364489574620    5.37815683178102
H        -1.95818933173682    5.64690067806529    6.80920616350134
H         2.57413879309588    5.04386221703603    2.64176353588596
H         4.97487195765275    4.63155038815761    3.01622414008096
H         6.14363569694502    5.75851820793735    4.87539889033485
H         4.90969259519174    7.29702835768627    6.35375387746504
H         2.51075392661426    7.72293359220972    5.97322878750346
H        -1.66295973872062    7.82547469338406    2.85887083665840
H        -2.08869797612944    9.02123786245823    0.74098249556820
H        -0.24776746569332    9.37460711797497   -0.86417189023188
H         2.01579649318012    8.54573737356667   -0.34513172716487
H         2.44479308940607    7.34970338881157    1.76041339995814
H         1.02841482024058    9.48745962034603    4.51084695171499
H         0.08414748508292   10.99608368779343    6.23613802520682
H        -1.49821668938374   10.10212852466395    7.90410869995347
H        -2.16015355168006    7.73955871382759    7.86411586426924
H         1.20244296831484    0.90430614142842    1.24979793765297
H         1.86282638236844    1.24763535624777   -1.10053527160955
H         1.72235432031966    3.48864555293195   -2.11256066205415
H         0.90717893574856    5.40203453332421   -0.77332119611028
H         0.24635938919376    5.05486307392078    1.58168488446094
H        -1.70207209087346    1.55155358980965    1.66333571132287
H        -2.93805039937815   -0.58057427729789    1.84409854226612
H        -2.45718617983277   -2.12840173867225    3.70214840422519
H        -0.75635664577912   -1.54493292451622    5.38862652898177
H         0.47660105250307    0.58829507867652    5.21500818754095
H         2.88445409116097    1.18769649767528    2.93751048571190
H         4.90321442741731    1.12746650962281    4.35371654909930
H         5.02266113125578    2.47930527713156    6.40500920921259
H         3.12956393095799    3.92597394576511    7.06547169296153

