104
CSD_code = ZEWFUF | q = 0 | S = 0 | Stoichiometry = C42H54ClMnN2O4 | MND = 5
Mn        5.69551346100053    2.46706956665339    1.71138925645212
Cl        5.38631500359307    2.13441707935347   -0.23800780388344
N         5.89361695889166    4.29733841292680    1.72853777409900
N         5.60571255211088    0.75353380850849    2.37860017495729
O         7.43808697692851    2.51520523307258    2.24847931005786
O         5.56831956662759    5.81167276483364    3.95202228869046
O         4.20082062589067    2.68522656104106    2.73387417346222
O         6.66059828386394    0.02617720602750    4.76596083795188
C         8.04244238738817    3.68539435437829    2.21325902769207
C         7.16121995912246    4.75693450349415    1.93658784420825
C         7.61703090507437    6.07589584315590    1.89412972768608
H         6.91522397567037    6.85681358446319    1.65259244422756
C         8.95154000396063    6.33055324782997    2.13472388861843
C         9.81111925220180    5.25439833950518    2.40558416872044
H        10.84958631891795    5.47550858252627    2.58350939981378
C         9.40682171617920    3.93325199940104    2.45304592534555
C         9.52904654924786    7.73888136427748    2.12025690347192
C         8.46901987155522    8.80336461345799    1.82406759811020
H         7.68195525832083    8.78875358504435    2.57426442433057
H         8.02718999218013    8.65291576183352    0.84210418243398
H         8.93005104182962    9.78916255686655    1.83808039076151
C        10.61445021358854    7.83260424028980    1.03910269622122
H        11.43113436016992    7.14388587585653    1.23532707747552
H        11.02088133309297    8.84131360014149    1.00221780613025
H        10.19374192121640    7.59322121290070    0.06501037487128
C        10.13615099481802    8.04445298546014    3.49712278242928
H         9.37676589530330    7.94683906716100    4.26998974625632
H        10.52446439899205    9.06072825650118    3.51883145373695
H        10.95012874263632    7.36497217680199    3.73254871007403
C        10.34496610644723    2.77117784599986    2.73260104831147
C        11.79785386827502    3.21145328328708    2.92836411154947
H        11.89553948445924    3.88048075315137    3.78046651262538
H        12.17961423447864    3.70686172574604    2.03860597110574
H        12.41529408352556    2.33538187651772    3.11651896834616
C         9.86990923124064    2.06096110705812    4.00706451318424
H         9.94051483922028    2.73220929856371    4.86141801472079
H        10.48406780497879    1.18256307240483    4.19804428210049
H         8.83637129079767    1.74712360677038    3.89429235818812
C        10.28637955253377    1.79848855379833    1.54714495673181
H        10.93348076999335    0.94263720374751    1.72883299911856
H        10.61295268745498    2.29552748468455    0.63570960358644
H         9.27290496614192    1.43532787116285    1.40228567219596
C         4.83159049826670    5.19562034752077    1.80655018916358
C         4.65115570770366    5.98931738229057    2.96345221702631
C         3.56289572721765    6.84666346736198    3.03276342676594
H         3.40390394619609    7.45758095706275    3.90762769389185
C         2.65944624784678    6.92163032427136    1.98383956870332
H         1.82027872577195    7.59705458158486    2.05830037282874
C         2.82136966356308    6.13380309390547    0.85946844103378
H         2.11019664166209    6.18616950786047    0.04972745138400
C         3.89865532686588    5.27034960766156    0.77755980439172
H         4.04166891532330    4.64575297520786   -0.09282418114398
C         5.40438831084778    6.50993741767247    5.15962976566779
H         6.23013482459998    6.19192004446334    5.79421371332463
H         4.45595421637945    6.25859498868672    5.64522138849847
H         5.46206602125499    7.59353394156040    5.00941583988840
C         3.67435965768378    1.59932132551323    3.26252749086401
C         4.48443573451759    0.45174013816995    3.09487407175056
C         4.10390947566388   -0.78519672173537    3.61869914255585
H         4.73895254314598   -1.63749644158364    3.44254072816949
C         2.91780909632748   -0.87950786918060    4.31724038535189
C         2.12716332211449    0.26981145678764    4.47309839652468
H         1.20297607959689    0.17193582832313    5.01647164361803
C         2.46030631466118    1.51320812800443    3.96900111726152
C         2.43243678215194   -2.18632890281692    4.92857995652401
C         3.40560534878898   -3.34330088612027    4.68594277061116
H         4.37980477410248   -3.13051640645891    5.11970017912340
H         3.52449762054089   -3.53809976875756    3.62291805306863
H         3.01890761047114   -4.24738857044688    5.15244674228684
C         2.28149251146166   -2.00383283283926    6.44566069661308
H         3.23218219965912   -1.70541296617185    6.88228309090604
H         1.96624569645419   -2.93788278454484    6.90635917150616
H         1.54430265314449   -1.24241732342317    6.68332446089624
C         1.07881431591081   -2.56404191209694    4.31138320469642
H         1.17582556228194   -2.66957541343899    3.23313763268809
H         0.32561353387237   -1.80771725082913    4.51259106009863
H         0.73025136685493   -3.50961687042336    4.72177799095451
C         1.59314214058021    2.75064294023309    4.12858403266673
C         0.29281636600449    2.47387878152608    4.88727289842613
H        -0.31582369544113    1.73905370250486    4.36533904169688
H        -0.28178478172394    3.39503817486822    4.96100739966939
H         0.49300227853882    2.12113751784322    5.89659503054814
C         2.39545964225806    3.80878398684413    4.89732827154377
H         2.62213608949357    3.45419341632868    5.90149829966249
H         1.82386184065983    4.73242584208800    4.97101276661692
H         3.32842360545532    4.01520308079640    4.38124536906532
C         1.23944250657863    3.28357729776164    2.73368726965382
H         0.67645672442390    2.53693061867537    2.17692224877911
H         2.14129011441938    3.52567619074468    2.17863502942516
H         0.63620489951377    4.18555154010742    2.81598492082536
C         6.68663302921498   -0.12438035449496    2.42036718694523
C         7.24668056193413   -0.50861211550393    3.66119367401895
C         8.34832980563011   -1.35143235406538    3.67426522527276
H         8.79408855855003   -1.65299308079991    4.60927487932502
C         8.89773616170596   -1.80823303181838    2.48616719433761
H         9.75430287356884   -2.46482362762315    2.51972611909138
C         8.36514839703312   -1.42026241467909    1.27087583825521
H         8.80202152062399   -1.76849541597207    0.34780414541580
C         7.27000190028758   -0.57610526840593    1.24122189966363
H         6.84025089393896   -0.26078833781467    0.30099556251002
C         7.21439832873500   -0.25166155130292    6.02646244337309
H         6.60116497289141    0.29537933751693    6.74087192121943
H         8.25037304043131    0.09514498343242    6.09711181917650
H         7.17054781172310   -1.32132251821905    6.25878423902490

