69
CSD_code = ZEWGUF | q = 0 | S = 0 | Stoichiometry = C26H37N5Zr | MND = 5
C         4.99391182605464    1.71833378316010    4.73512014595338
C         5.85192682509614    1.74693605223069    3.62824586120690
C         6.59943097367524    2.87952329125603    3.32415182015396
H         7.25140824199892    2.89115342737577    2.46086702606401
C         6.51252363922258    4.00223941628070    4.13395935954875
H         7.08607541567596    4.88546541391061    3.89281384687185
C         5.71660471533392    3.99717168852561    5.26814778770513
H         5.69094817997535    4.86613064352666    5.90938149437887
C         4.98182441436440    2.85005790806587    5.55176401863252
C         5.93740652484718    0.46569444076775    2.81704084236193
H         5.66142466992753    0.65599049420111    1.76806866460317
H         6.99969307269682    0.15270340049524    2.79900135746443
C         4.25247991619351   -1.27948329220221    2.54815150302247
C         4.36447603910149   -2.69166987045231    2.46021253397771
C         3.50583110824930   -3.40780009906931    1.64393052569476
H         3.58909579247079   -4.48271850885452    1.58403640918848
C         2.55069192126540   -2.76088133320100    0.87915750268067
H         1.90120547095937   -3.32601514029206    0.22698775967931
C         2.42514552897126   -1.38689442398292    0.96566289441290
H         1.66086997357191   -0.89625401482486    0.38020683700686
C         3.23918379492803   -0.63061535296597    1.79710671565638
C         2.95681320622732    0.85454668873279    1.93818140473850
H         3.60505378037674    1.27418962023620    2.72082401248817
C         3.20190637460481    1.60669527299907    0.62575411688287
H         4.21834302450006    1.45333344719309    0.26851424941645
H         3.04659517333724    2.67457323998004    0.76790823403777
H         2.51922877797626    1.26017825887786   -0.14692356299138
C         1.51808258762261    1.07669523490956    2.41963105606912
H         0.79455840243773    0.73748159749248    1.68232208427869
H         1.34677690164278    2.13675523745091    2.60302106418274
H         1.36968084251428    0.52321541537591    3.34898138595583
C         5.44385191881685   -3.38074268738306    3.26697468625305
H         6.20302120128704   -2.62036170020542    3.49492800068206
C         6.10837758243386   -4.52998072039178    2.50588499724288
H         5.44179704348259   -5.38501762718500    2.41947893145952
H         7.00199551105862   -4.85582045054894    3.03444210679708
H         6.39551226991920   -4.21254759114134    1.50617795576589
C         4.87369213290230   -3.87826282047803    4.60086136734772
H         4.56367609533899   -3.01817329529833    5.21165612811164
H         5.63593301280847   -4.43417835391316    5.14512396891215
H         4.02487419792091   -4.53991776178991    4.42828464762819
C         3.04851899300544    1.67653391631956    8.18545828335885
H         2.54457455877267    0.85294380685022    8.65490914282635
C         3.15053294373313    2.99523081598067    8.63260887928835
H         2.74406232402039    3.42011909231764    9.52711493049978
C         3.89635179760776    3.63275153843712    7.66446913034510
H         4.21018343585880    4.65429100455735    7.59949687043208
C         1.11617555103914   -0.09605393396513    6.00911766392333
H         0.07870730892976   -0.23993595238655    5.65076639531489
H         1.28575280343972    0.98140625314074    6.10249751394186
H         1.16067406916359   -0.55522138116228    7.02055757686622
C         1.72785012213432   -2.07627355249343    4.88560719219887
H         1.85155284111219   -2.68474060909902    5.80976117983432
H         2.34265499679693   -2.50458325784172    4.08792080203856
H         0.66902783901202   -2.18301932819513    4.58165942287182
C         4.57070538869819   -1.54959042546156    7.83936779734708
H         5.08876625139419   -2.39061738776533    8.33789713807354
H         3.51685563291172   -1.82914514108409    7.71784695049830
H         4.63489438829273   -0.68379873226397    8.53028666816146
C         6.50936942440538   -0.77697173225794    6.69775155824518
H         6.55461264769161    0.16912841863861    7.28292863101136
H         6.94696000543291   -0.60169313970661    5.70676914649816
H         7.14225861109758   -1.51043620519405    7.22991367114759
N         5.15224220380326   -0.62605717592840    3.39005238055102
N         4.19475217439353    2.72036605850753    6.72233738825380
N         3.68102854201428    1.51956971575587    7.02931755435806
N         2.06269687338850   -0.68013961720217    5.08462548200881
N         5.15783425282278   -1.27372841885033    6.54755440641585
Zr        4.08247593725972   -0.26346355854479    5.14066450216817

