79
CSD_code = ZEWGIT | q = 0 | S = 0 | Stoichiometry = C28H44HfN6 | MND = 4
C         1.58853499861765    4.94392119037657   17.59923393957695
H         0.99759510718926    5.72060815274374   18.05684973021205
C         2.97294047477567    4.95577519590339   17.67674734651132
C         3.69202134135694    3.92573986717047   17.07999931518502
H         4.77092431442088    3.92555751018774   17.13415353723082
C         3.03199221830285    2.90514474216913   16.41914001705072
H         3.59589610192422    2.10057133799739   15.97058982374744
C         1.65227343209800    2.90679978809967   16.31660884479799
H         1.15415003763127    2.10575059891594   15.79358146580639
C         0.92715294948972    3.93886309624205   16.90276843254128
C         3.66776556943674    6.15458496555958   18.27872654890423
H         3.15118763850211    6.42253209509732   19.21644810215022
H         4.71216517692947    5.90470784211724   18.49998040944957
C         2.39773112048770    7.74165427563187   16.96455893806774
C         1.66802255332930    8.55470986306372   17.85399094771171
C         0.39728988323100    8.98360220396094   17.49350731778780
H        -0.17224235615778    9.59838627127488   18.17466843433165
C        -0.15273666036579    8.64222103368042   16.27334007538964
H        -1.14665689022552    8.97557222630226   16.01417549580120
C         0.58102935779076    7.88726248980876   15.37611043417412
H         0.15102638308787    7.64947610477834   14.41580719225158
C         1.84548465321182    7.42681932755227   15.70447406484761
C         2.68523131595592    6.63426691684802   14.73023691062310
H         3.28643684956069    5.93274617209858   15.31586857047946
C         1.86982300524870    5.83071125581327   13.72000566804085
H         1.10327816201676    5.24838608673491   14.22588083427210
H         2.52285972170362    5.14477631776211   13.18408651181085
H         1.39316607219466    6.47943830441725   12.98857690727362
C         3.64456452078271    7.59131848650940   14.01419890660553
H         3.08126107351302    8.32392459124175   13.43820025180399
H         4.29087597842911    7.03938272824764   13.33373457981195
H         4.26296241737761    8.11563324442303   14.75271309106087
C         2.27058668963732    9.01818057464074   19.16194743647964
H         3.27824912863301    8.58993552187489   19.26883577808020
C         1.41533947901575    8.59112775098239   20.35848299107703
H         0.44758269661807    9.08691604523151   20.34252909095144
H         1.91672534119249    8.85075639639569   21.28828944402714
H         1.24261142107535    7.51670886244444   20.34703222992072
C         2.45537115965490   10.53947916706236   19.13835376874987
H         3.12898675538912   10.81135342435441   18.32410963208027
H         2.89181067696330   10.87183552009795   20.07764920415816
H         1.50462388466907   11.04983269700963   18.99800236543214
C        -1.28667642661521    3.32840659887666   15.96669564466441
H        -0.92336686670080    2.61568471157822   15.25553857198763
C        -2.41788225910661    4.71499505855693   17.23650086790520
H        -3.17604047570013    5.29352315525143   17.72566449255900
C        -2.56427053205430    3.76113433485170   16.21611664515450
H        -3.46857902252701    3.44307668317142   15.73942054506207
C         3.49967175781125   10.75255664487157   15.54034900494828
H         3.24513998457034   11.81771980821999   15.67885359697480
H         2.64045624486171   10.15543024450916   15.84691918524675
H         3.66013340997622   10.60669264359286   14.45740498843364
C         5.81612329862762   11.12475469309274   15.80706133242770
H         6.05346446825044   10.85293805824876   14.75965274571829
H         6.69590946900694   10.93585903885315   16.42597060787599
H         5.62872154064133   12.21266283970997   15.81201663510436
C         6.55824369196995    6.64153216226157   15.79697745859087
H         6.62562013961092    7.04572977568420   14.76935383025048
H         5.60901874859463    6.11742637126687   15.91270199675531
H         7.37526058099303    5.90849685841360   15.90304497897210
C         7.90201727825206    8.40781823521344   16.60785578744587
H         8.77350360868736    7.73740406968906   16.69644874240675
H         8.00837744938293    9.18625291191033   17.36804284987838
H         7.96461693604663    8.87579245855183   15.60549477218484
C         6.12930134753632   10.54601834954125   19.37059873282034
H         6.15165964721144   10.86552187953546   20.42549749185314
H         5.56299550834116   11.28800289510647   18.80443607482146
H         7.18044562541832   10.55298131303105   19.01925791651603
C         6.28622899923551    8.25934271149368   19.96233225474183
H         7.31695704603642    8.16690204739550   19.57355544994710
H         5.80149238952715    7.28299451889940   19.89977365015348
H         6.36494548472863    8.52995640003296   21.02780917829078
N         3.67107239977161    7.22914774815129   17.28968411281829
N        -0.46603758326310    4.00773320555317   16.80567966554637
N        -1.15597022188059    4.85340792534679   17.57464355012510
N         4.67103872087695   10.40285050544359   16.31500630754858
N         6.67399893916169    7.67292782964981   16.80647325115283
N         5.50349043872199    9.24722392737625   19.24927977591014
Hf        5.03212447927448    8.71363114416690   17.35379272117832

