34
CSD_code = ZEWJAM | q = 1 | S = 0 | Stoichiometry = C14H18NW(1+) | MND = 12
W         1.90992847261154    1.29791743782995    3.28611599932346
N         1.73307700512605    1.10759012473999    5.28171183277550
C         1.65728640270519    1.01495484144159    6.43525065707175
C         1.54776879562173    0.88916513150916    7.85086008999658
C         0.03417604288066    0.10875022436251    3.42230466552088
C        -0.56097007000403   -0.23836487593496    2.06358068007216
C         1.13975870789089    2.85849207621587    1.69405482182581
C         2.36552287440264    3.28985166474443    2.29981135570776
C         2.12798178078122    3.52514321060553    3.68058506666910
C         0.74359888073789    3.23571288541172    3.91937511985913
C         0.14314286644036    2.87633387128186    2.68482709730283
C         3.83181158451281    0.90176459860612    2.16443673108625
C         2.88281519821813   -0.01307344622308    1.59914451573156
C         2.55438944225882   -0.95515890629081    2.59136925827660
C         3.22439294515219   -0.59805340034498    3.78895002902398
C         4.04391112832827    0.54592426259664    3.52534153417141
H         1.16906368329267   -0.10019707240988    8.11108492353135
H         0.84757352608923    1.63793629971075    8.22233312860398
H         2.51545842561022    1.04338443016421    8.32985564733197
H        -0.73050801425663    0.64628097318122    3.99919467445730
H         0.19407062422884   -0.82911825463514    3.97139405576857
H        -1.49512674296718   -0.78809803865979    2.19333949598519
H        -0.79387361520122    0.64683857683901    1.47580329880701
H         0.09805869610713   -0.87100756148664    1.47361232793563
H         0.97234426882079    2.74947181235349    0.63031798417054
H         3.23969121820235    3.62149463254880    1.75432972051564
H         2.78785644560563    4.04326370283979    4.36182932530628
H         0.19724148735339    3.48729386139251    4.82306256380391
H        -0.91736086429914    2.73788813632837    2.52913080139011
H         4.46390596563450    1.56594076694018    1.58870782340811
H         2.64111731899913   -0.09407747943896    0.54738121009579
H         1.97580244961286   -1.85727569987142    2.45158820017637
H         3.28146477657135   -1.22028923161887    4.67636792427506
H         4.83492829293168    0.91222044527078    4.16394744002011

