69
CSD_code = ZEWLAR | q = 0 | S = 0 | Stoichiometry = C28H34MnN2O3P | MND = 6
Mn        3.83153134105086   10.29382128130161   10.37980959034884
P         3.60131453348068   12.46411232319076    9.47926726904044
O         4.49222715190791   10.99939141819759   13.14334653275259
O         1.06526589041309    9.74164909524028   11.13860961694115
O         5.77886448836733   10.27978112582488    9.79038760531659
N         3.55890015037904    9.81939971159445    8.51631308069793
N         4.21259481532576    8.39466448315499   10.53343419601718
C         2.56518358994991   11.94378526032764    8.02105902986073
H         1.55031485256087   11.80178344173581    8.40924030862137
H         2.54134143321080   12.68140399899022    7.21625684936941
C         3.09901340030128   10.62485083605002    7.55928165234112
C         3.14165115819287   10.26741169177453    6.21942140113457
H         2.75529638570161   10.93760575796686    5.46657220101689
C         3.70723366764260    9.04928089831200    5.86378082644156
H         3.76471879752830    8.75531177186763    4.82676544706872
C         4.20151887461755    8.22684562701293    6.85499846502480
H         4.65597472963884    7.28283213688193    6.60180204680246
C         4.10859294126638    8.63833011463857    8.18717227731753
C         4.51628021939618    7.84199181029855    9.33369432215433
C         5.12652344753078    6.58964126642591    9.23383780566394
H         5.38944510059639    6.19237758180536    8.26640095812427
C         5.40820152085868    5.87276675978854   10.37703798524942
H         5.89389454166732    4.91091713444445   10.32025600338890
C         5.04463320150745    6.42049138662300   11.60317525971235
H         5.23010876556735    5.89394299285471   12.52546782884391
C         4.46237532695061    7.67258424206398   11.62905194182038
H         4.18596745428634    8.12597712326607   12.57398680185569
C         2.48470391269780   13.77530302085478   10.29006996695981
C         1.45676109409676   13.01194671293441   11.12885675046197
H         0.82410949671141   12.37654857264342   10.51308700283494
H         0.81145259888391   13.71753747946221   11.65028994005906
H         1.95914297979856   12.39057416692711   11.87063925618835
C         1.72298625914542   14.67890357896797    9.32062617670985
H         2.37868223186211   15.25310673164540    8.67724980195612
H         1.12756154009597   15.38447574265059    9.89949795569260
H         1.03964520626996   14.10503857413115    8.69984691970487
C         3.33248316464898   14.60176157615250   11.25717512318653
H         3.96370872260770   13.93850059425479   11.84889310566739
H         2.68614200817902   15.15312651642855   11.93889939608270
H         3.95645756101846   15.32335150901014   10.73748671942540
C         5.07588754706699   13.32687497730993    8.64556283549299
C         5.64014425242310   12.35153018091393    7.60782526657869
H         5.83140075656245   11.38781423969709    8.07840333878207
H         6.59052833449632   12.73073924843216    7.23208184040375
H         4.97286171878602   12.22576234919925    6.75704034292250
C         6.14083830045865   13.52950812602623    9.72490110122258
H         5.87711349625545   14.31842573717746   10.42266861723293
H         7.09371367561016   13.78771237700620    9.26431391807429
H         6.26907619756907   12.60165210342593   10.27634804195469
C         4.76942555483178   14.64949935863225    7.94447368757452
H         3.97054468299195   14.54375080408842    7.21264275221062
H         5.66390970283968   14.96959033461703    7.40980556065289
H         4.51201699682377   15.43663389733253    8.64723329686889
C         4.23779319960299   10.71738101611145   12.04841467112033
C         2.13645672242211   10.05603993372257   10.81958752682672
C         6.91678574982518    9.98644155551440   10.48195754712722
H         6.84543983369766    9.00818121790820   11.01961411113187
H         7.14608689572216   10.74012814102009   11.26493161282321
C         8.10882021022999    9.88537748977026    9.54916456703942
C         9.36589974052880   10.32549014071657    9.94040263192348
H         9.49645040512253   10.75717400270103   10.92334102182065
C        10.44660471784135   10.21563633893973    9.08386206950341
H        11.42082187590076   10.56136532217278    9.40013544445443
C        10.28245346850372    9.67090298229354    7.82138421517585
H        11.12639074816966    9.58919451601912    7.15124205916581
C         9.03102987166109    9.23463877320083    7.42158416749551
H         8.89507989762273    8.80990211892781    6.43634382767003
C         7.95374902082710    9.34023463543862    8.28175082006483
H         6.97327186953127    9.00529203402733    7.97263768880190

