53
CSD_code = ZEWLIZ | q = 0 | S = 0 | Stoichiometry = C21H26MnN2O2P | MND = 5
Mn        1.97534512528365    1.63838965473126    7.93124718151005
P         3.34427758142363    1.78194931033523    9.75584274638685
O         1.09981978189840   -1.13563512810601    8.25435854630432
O         3.78021281962731    0.76947350595888    5.79283276612149
N         2.15431709846371    3.56541648282233    8.00838075624616
N         0.56010139263818    2.12788364235300    6.62637399011544
C         3.73476802818889    3.50220865814134    9.76654265029372
H         4.47873674836256    3.94416396096488   10.41037532088450
C         3.02183492877664    4.23487234789428    8.85013379504846
C         3.12618070010021    5.66260132642433    8.75404311276433
H         3.84361317970628    6.15884593626623    9.38993027442977
C         2.33542842619839    6.35392961786528    7.89600047250863
H         2.40072078027980    7.42957361530752    7.81916195572234
C         1.40788489353837    5.65685178116249    7.09738135434570
H         0.75912084889983    6.20011476125382    6.43188413376588
C         1.36531903902186    4.27989561898453    7.18228081662957
C         0.45107025151326    3.45454446484271    6.39156087593731
C        -0.46274542513497    3.96357551464090    5.47040017096178
H        -0.52432764432845    5.02644924840778    5.30318078269786
C        -1.28478041586200    3.10252815589327    4.77236905025616
H        -1.99721113324504    3.48075245908517    4.05541985914673
C        -1.16641207287862    1.73957950814334    5.01307289155420
H        -1.78161518584860    1.02447079780769    4.49146325520479
C        -0.23671236254960    1.30426165986364    5.93616956237324
H        -0.11850514971779    0.24507882311878    6.12865735682233
C         2.27908974017535    1.55354194421987   11.31776126070638
C         0.94134082359415    2.18782271368993   10.91103569585693
H         1.07395630044436    3.25091905048087   10.69898922204734
H         0.20910680206749    2.09447049348891   11.71401240125066
H         0.52906467379520    1.68712190281830   10.02059918237889
C         2.81259709806677    2.30473582826553   12.53546151104049
H         3.72713699324922    1.86208600397814   12.91651629675695
H         2.06835418379483    2.27580531007540   13.33183209917367
H         3.00556049648186    3.34737086227245   12.29025766973486
C         2.06764337621483    0.07888264345591   11.64383446922221
H         1.78768855796478   -0.47582177586209   10.74990507265539
H         1.27095640042622   -0.02744349053334   12.38065476777060
H         2.96876091969042   -0.36276664040508   12.06187008137533
C         4.98596969340367    0.86955752278153    9.88858131282763
C         5.67350347234777    1.00354381458032   11.24305047051020
H         5.71874954257711    2.04502035895181   11.55482169275487
H         6.69426791506773    0.62952874128957   11.16800540035523
H         5.16310907780601    0.42392553727772   12.00804593285456
C         4.76118469349474   -0.59796171572306    9.52782322198399
H         4.18325460304546   -1.11472042020573   10.28822420568816
H         5.71833502844084   -1.10651714221476    9.42306519935948
H         4.22178690201357   -0.66262272279638    8.58043607401609
C         5.85251379044864    1.51798803401330    8.80530688448461
H         5.29344042424459    1.57376245487631    7.86902854040153
H         6.75179232276425    0.92847217719121    8.63649409995897
H         6.14768130883938    2.52492969735738    9.09139514875977
C         1.45090509040822   -0.03352792523495    8.14715190606766
C         3.10970753477483    1.10102101774999    6.68047650197828

