97
CSD_code = ZEWMAP | q = 0 | S = 0 | Stoichiometry = C48H40N2P4PtSe2 | MND = 4
Pt       -0.66222285783055    1.02613950937602    7.57763798330754
Se       -0.31062072140476   -0.78844944982722    9.21562133493889
P        -0.30330326050861    0.43302628778929   11.02254265709855
C        -1.87682785914095    0.75057420790719   13.25739410256833
C        -3.03299136666005    0.65457154110696   14.00818901897428
C        -4.13484833374235   -0.01784823040659   13.50057445261616
C        -4.08376992129294   -0.59197247407386   12.24117994175904
C        -2.92819660031038   -0.49785295883382   11.48513479002387
C        -1.82527649460313    0.16672900379017   11.99744994929042
C         0.91317885993119   -1.35625850691743   12.74607252424112
C         1.94791598818821   -1.81034562371931   13.54176351279853
C         3.08668508040244   -1.03567062837051   13.70379952380496
C         3.19648309251671    0.19035541856952   13.06747803766930
C         2.16553266391097    0.64881629700116   12.26706683827871
C         1.02326043424323   -0.12252800620661   12.11800887023375
N        -0.09431738553459    2.00555460439122   10.74136264764378
P        -0.39027119791210    2.59530247648759    9.24172101076593
C         1.47640127535322    4.69755585504963    9.58107792568112
C         2.72395414692260    5.25808567616721    9.37013366739635
C         3.63450223631495    4.63971163934616    8.52869329842496
C         3.30946772438215    3.44601148670132    7.90410463338729
C         2.06126842946755    2.89043573712717    8.10445085827575
C         1.13361923111819    3.52458062391272    8.92305079699600
C        -1.76308017184151    5.08711510115860    9.07634611912283
C        -2.86331250047465    5.89067502733762    9.31515302531157
C        -3.95257332245284    5.39412047037144   10.01075335116597
C        -3.93857697209423    4.08922511479644   10.47652021079282
C        -2.84306277842082    3.28469586289229   10.23377145357109
C        -1.74648799418581    3.77601602759532    9.53158331594501
H        -1.00805140943684    1.27717264749646   13.62915617290628
H        -3.07825951845211    1.10373969503526   14.98958284373279
H        -5.03706555028009   -0.09266394462830   14.08997153010712
H        -4.94403814177024   -1.11295861876402   11.84701599658980
H        -2.87374608485318   -0.94229790999071   10.49900738746035
H         0.01843666933056   -1.94805383963677   12.60093642094187
H         1.87047906638938   -2.76840627433575   14.03456082363603
H         3.89391052831563   -1.39282300855097   14.32651910901700
H         4.08819108473104    0.78721203476838   13.19298559998251
H         2.22438200980022    1.60012059087075   11.75642343385407
H         0.77188234144779    5.15749145276932   10.25958782892196
H         2.99170544158340    6.17744862785359    9.87115009782370
H         4.60670530957741    5.08290319583118    8.36938304926300
H         4.02880407477948    2.95385646913514    7.26634321982033
H         1.78327059678821    1.94500303889053    7.63039393954150
H        -0.90834522854651    5.48043992784273    8.54805889962837
H        -2.87011050781632    6.91042461883730    8.95755171686616
H        -4.80959268381556    6.02552217509712   10.19366537502319
H        -4.78266720591167    3.69944289583241   11.02706506380114
H        -2.82333592807156    2.26370115716174   10.59382273760145
Se       -1.01734760088089   -0.78869815656190    5.94120888513888
P        -1.02159069518066    0.43264612909727    4.13349252505838
C         0.50129844432478    0.16518386020260    3.16044078323595
C         0.55429490344849    0.74681371289934    1.89953646257232
C         1.71214618497783    0.65153403610514    1.15124321717966
C         2.81422573879280   -0.01789421745351    1.66230800751441
C         2.76163699912996   -0.58993784330641    2.92258537092647
C         1.60438832263771   -0.49651934524390    3.67612322575884
H         1.54874732504593   -0.93930874815276    4.66293719858036
H         3.62203636017290   -1.10867571220566    3.31941821730411
H         3.71782735761350   -0.09195379372776    1.07494300758379
H         1.75864506879833    1.09915803060350    0.16920151063386
H        -0.31462364164053    1.27128789721903    1.52511100765796
C        -2.34808975931151   -0.12208183808663    3.03752343525184
C        -2.23922416713633   -1.35671820077200    2.41101107175676
C        -3.27428850522752   -1.81070069000670    1.61567689490951
C        -4.41220893917089   -1.03502773265455    1.45247809491660
C        -4.52078843229085    0.19193892482283    2.08719751842573
C        -3.48949469151884    0.65032323392059    2.88721893343133
H        -3.54742158739778    1.60234595242161    3.39662318837965
H        -5.41179012419847    0.78962571099955    1.96061782943829
H        -5.21972521210939   -1.39210747470784    0.83008885793050
H        -3.19789153501470   -2.76954832647704    1.12424819205453
H        -1.34523456814619   -1.94937935630914    2.55725587014258
N        -1.22855692471661    2.00565107099043    4.41387247450695
P        -0.93287803129816    2.59516278307646    5.91365146277725
C        -2.45689457233430    3.52380561504857    6.23352245014469
C        -2.80051637094960    4.69675122212407    5.57588640846631
C        -4.04778383841654    5.25727583497099    5.78844881928495
C        -4.95717475321360    4.63898433055643    6.63122109771786
C        -4.63141158289720    3.44522053618608    7.25528650046018
C        -3.38352515012473    2.88957745313437    7.05321177122525
H        -3.10502172143408    1.94401604346088    7.52681482979497
H        -5.34986801813359    2.95309589261397    7.89405962962833
H        -5.92909247416871    5.08227312564217    6.79196316210922
H        -4.31623579346916    6.17659124583048    5.28773015315278
H        -2.09675399490862    5.15662440876934    4.89653807087986
C         0.42301234268806    3.77634902872448    5.62483520856464
C         0.43904789253959    5.08671709588429    6.08218441731289
C         1.53945821943452    5.89073195176054    5.84584604330862
C         2.62945556747257    5.39532353819862    5.15056988107149
C         2.61588328932043    4.09127067236810    4.68243552467905
C         1.52018358960573    3.28623730619291    4.92274804002353
H         1.50082475527535    2.26587143689333    4.56092167307702
H         3.46049946365302    3.70252413961334    4.13196386675544
H         3.48669285764577    6.02701203810529    4.96968415884060
H         1.54586021048671    6.90987898094466    6.20516487032406
H        -0.41631649597812    5.47900117422006    6.61023308147822

