69
CSD_code = ZEWRAW | q = 0 | S = 0 | Stoichiometry = C33H31AgN2O2 | MND = 2
Ag        3.26864384092156    1.10936071131034   25.33856552338982
C        -0.29103355520181    1.32360165479343   25.47442664715074
H         0.65207690749963    0.77817594872731   25.44723002824943
C        -1.40681482828440    0.75060825056451   26.05651411438991
H        -1.34558254718454   -0.24507274201932   26.46940094751792
C        -2.59728422575272    1.45641943341515   26.11935297131232
H        -3.46825605050125    1.01021148029888   26.57570396050113
C        -2.66235564573977    2.74024561842291   25.60682264417885
H        -3.58364263300314    3.30090790481855   25.66518151709230
C        -1.54598908257526    3.31125996739154   25.01994381689734
H        -1.60082678451910    4.31647240392007   24.62621338668673
C        -0.35298795303117    2.60418178761272   24.94026971327345
C         0.87295981314814    3.23136494357856   24.32161763327584
H         0.63117271819418    4.22619898644398   23.93882588460243
H         1.64424718345335    3.32207977846884   25.10037350465539
N         1.44311203914535    2.45715672786004   23.23955273156425
C         2.40220191361047    1.52335108627580   23.41001476790209
C         1.18248723891407    2.64726886127427   21.90287810814630
C         0.20044313860330    3.57412875958456   21.34706528488073
C        -1.13052380272135    3.54008547403232   21.74961921673544
H        -1.44926083808382    2.81861665664796   22.48693555335046
C        -2.05081647349878    4.40850220931546   21.19237642466793
H        -3.08054350181138    4.36791946040966   21.51759276720601
C        -1.67261424987404    5.32212989005276   20.21813196721119
C        -2.66149126029288    6.27095477902852   19.61449817728641
H        -3.66315752013365    6.08470736143439   19.99304023752848
H        -2.67270940383317    6.17011710917382   18.53019105221338
H        -2.38811771590425    7.29949294144784   19.84819313680848
C        -0.34321228111187    5.33971709071885   19.80663107207555
H        -0.03393127883272    6.03973770142401   19.04392826264057
C         0.58312234603361    4.47949639676388   20.35897623961874
H         1.61226961843062    4.50511529762204   20.03265945360072
C         2.03083669524483    1.81750911588674   21.21744272303391
C         2.13815246025303    1.64108440483041   19.77267811679664
C         3.36319157885304    1.73038663192191   19.11891881724535
H         4.25903290070919    1.94111867235407   19.68327928382656
C         3.43512664691624    1.57846619311973   17.74698916181357
H         4.39523729563816    1.65117658927753   17.25639051650418
C         2.29342386650097    1.34446670782390   16.99200257730995
C         2.37155711221749    1.15909382766123   15.50813461710192
H         3.30470363521290    1.55395195154968   15.11432228546982
H         1.53980678647261    1.65615253761299   15.01334165817575
H         2.31980054491615    0.09804983484820   15.26177921453704
C         1.06890222532311    1.27311679811452   17.64853538284871
H         0.16908865832407    1.09937490389956   17.07621153267866
C         0.98725859142899    1.41950790974921   19.01803384173441
H         0.03048979304441    1.36001545247301   19.51537188041939
N         2.75983132624589    1.13794330697451   22.16716484609450
C         3.71953333495663    0.09473712125707   21.89810846413270
H         3.41594384637290   -0.43063016685957   20.98829670310078
H         3.68152883064582   -0.60255873703823   22.74508176345114
C         5.13954510412066    0.59336497051064   21.75298125636265
C         5.70396597469570    1.42110989544824   22.71451012229354
H         5.11814421123485    1.71994764904480   23.58336763395974
C         7.00949070846380    1.85933288548762   22.58430511930337
H         7.43486035512517    2.50250948279249   23.33947073071241
C         7.76889953249714    1.46797835074958   21.49415680472541
H         8.78805920357825    1.80944494880243   21.39299609077106
C         7.21842163627997    0.63115995010845   20.53874524371154
H         7.80696818850680    0.31580713427638   19.68995561209620
C         5.91040505662910    0.19722351297923   20.66685195128218
H         5.48439521807353   -0.45524099134216   19.91753852015365
O         4.09389265949437    0.64398246513884   27.31855269464878
O         3.49000873287587    2.75337119092776   27.12585723769392
C         3.95056107271706    1.80237070764221   27.78483970297442
C         4.35050772937512    2.03280966306353   29.23431931506471
H         5.12093767028036    1.32401953175297   29.52458284113198
H         3.47448801335746    1.87804231483266   29.86182314418848
H         4.69771767734287    3.05398935156001   29.36463584607105

