64
CSD_code = ZEWSAV | q = 0 | S = 0 | Stoichiometry = C22H36Cl2OSi2Zr | MND = 12
Zr        0.68997264500880    3.17328803706480    5.08949214428979
Cl        1.84325129822150    3.88020169407879    3.16650527304062
Cl       -0.42528319133792    1.48138215993605    3.89757896556012
Si        1.12207569431824    6.78126218165167    5.84310927487108
Si        3.34131367914988    4.96839581220088    7.05935838723107
O         2.19934330979722    6.13227702020234    6.90401364643339
C         1.42245582303022    1.32208295216159    6.66221276479012
C         1.55923975009196    2.58276503194367    7.28792332950692
C         2.56916254471204    3.32152332306977    6.60260107769771
C         3.04560489455853    2.47599310911494    5.56426415377069
C         2.35046546360974    1.25032865306445    5.59082279694633
C         2.71568776413102    0.04332903230803    4.75015762438188
C         1.68681065382561   -1.08032808786877    4.90595576228411
C         2.81394503324200    0.44483156529207    3.27167203933532
C         4.08603508721584   -0.46468994208654    5.22991695694185
C        -0.72119478761977    4.55810470922763    6.46565447143314
C        -0.09309858871270    5.40148880518801    5.49327467339276
C        -0.72847549651349    5.12437710535595    4.25268202585689
C        -1.71011235020691    4.14686070042395    4.45298063039239
C        -1.71802308097197    3.78399626731986    5.82183142264656
C        -2.69262258526523    2.84759377489538    6.50866185123539
C        -3.45649469609786    3.62245300740152    7.59278508451256
C        -1.92064195945117    1.68418917149839    7.14910377821793
C        -3.69282117891733    2.26796406951013    5.50430137015796
C         3.84940388315894    5.02779977086353    8.89121527672456
C         4.77466572464288    5.33647067605323    5.86506201800472
C         1.99360471058936    7.34975730168568    4.25229848796113
C         0.32612093892248    8.22354744684060    6.79609482846994
H         0.82965671767113    0.49713792800462    7.03397548919437
H         1.11928415045240    2.86636189525619    8.23725998784940
H         3.88544854288473    2.71100014023904    4.92448912599673
H         0.69528115103082   -0.73300061184755    4.62532042743009
H         1.66215146392679   -1.44274935044029    5.93133767716232
H         1.95295562515676   -1.91431754348339    4.26047088171675
H         3.57020470229842    1.21264929382624    3.12136994273972
H         1.85817051345200    0.82774630765835    2.91384939426858
H         3.08310937194704   -0.41968212142436    2.66804263711409
H         4.37815420028210   -1.34666197682493    4.66456411589867
H         4.04399321909313   -0.72664570739856    6.28489583469420
H         4.84797245394417    0.29919036549585    5.09767219159791
H        -0.57933814682214    4.65967165503217    7.53574551822859
H        -0.54050151389788    5.64796933819626    3.32337857594215
H        -2.38175786265211    3.77824349534997    3.69070199023897
H        -4.19462802908222    2.97911011874780    8.06663069357287
H        -3.97064341215110    4.47383648366428    7.15327242994861
H        -2.78020472703359    3.99085489289071    8.36016807878386
H        -1.21984412681349    2.04742849129271    7.90077647815645
H        -1.38306631991679    1.13392860376489    6.37274477588323
H        -2.61368284279929    1.00042017227815    7.63697346611088
H        -4.27763681796410    3.05943513292408    5.04218127403987
H        -4.37737180488486    1.59105471098571    6.01106851488365
H        -3.17123104148048    1.71063672499560    4.72914943507685
H         4.58376194875747    4.26292947088686    9.11688928636634
H         2.99974446765707    4.87717190905495    9.54889411128150
H         4.28441637684458    5.99041416620887    9.13585237942140
H         5.60485732322112    4.65310849902017    6.00827646850076
H         5.14971035271110    6.34373081351111    6.01500045872735
H         4.44862089363666    5.25802455852358    4.83125245277891
H         1.34391266916264    7.97480509297975    3.64895570710747
H         2.29483769169862    6.50180697897744    3.64226289024513
H         2.88277153655838    7.92753474878511    4.48255194661239
H        -0.45364843492413    8.69481638124957    6.20830921911881
H         1.06592063260287    8.97956147037458    7.03558178934666
H        -0.11697190766527    7.89043212284602    7.72870423788807

