63
CSD_code = ZEWSEB | q = 0 | S = 0 | Stoichiometry = C32H24Cl2O2OsP2 | MND = 6
Os       -2.48342023193569    9.82961858055704   11.06093484722944
Cl       -4.06799222683674    8.03532176218898   10.84281004089681
Cl       -0.60484325742356   11.36678597142248   11.08921698564061
P        -0.76671543097133    8.28310061688117   11.60621196492217
P        -1.62480650741945    9.36901220033979    8.89534659898001
O        -3.30626032361006   10.25011440469997   13.94431045712109
O        -4.53364014237124   11.81430825352528   10.04783179222682
C         0.54024600036603    8.47004770767225   10.34494240994774
C         0.14502440611981    8.96850229409668    9.09758354759695
C        -2.99625891254296   10.11018509401312   12.85181207255898
C        -3.75487894914124   11.07626948331084   10.44562525098738
C         1.87301391649958    8.16006717043636   10.57492264905424
H         2.18157449531700    7.79212321781607   11.54352380595635
C         2.80612487822722    8.34244813435491    9.56717691031740
H         3.84445219470540    8.10974307223558    9.75141483922091
C         2.41488694122999    8.83434764048451    8.33267661531640
H         3.14800232209310    8.98468748782777    7.55412339544442
C         1.08689527222587    9.14946921383249    8.09483228071160
H         0.78410599469956    9.54925864820819    7.13703765125599
C        -1.18013189868724    6.51563700297798   11.51783454571420
C        -0.59258839261413    5.62401153141982   10.63028758465586
H         0.20206100514538    5.95256901414604    9.97476676209060
C        -1.01702587668283    4.30711039040753   10.59834966438218
H        -0.56153448067089    3.61529453147296    9.90461634889316
C        -2.02224333615508    3.87845065133660   11.44771157785597
H        -2.35698266838778    2.85229493280773   11.41093827350419
C        -2.59925808502291    4.76309846778038   12.34592498456099
H        -3.38202241417435    4.42836356418205   13.00972071883748
C        -2.18259993159668    6.07866820098429   12.38112587380712
H        -2.63365559978051    6.78221558896702   13.06925503995386
C         0.13054618169262    8.36484559119665   13.18750047510282
C         0.18010756052160    9.56625611667522   13.88725407322402
H        -0.30851336619934   10.44334840807503   13.48617130984643
C         0.86413072705374    9.64151145943548   15.08724850816814
H         0.89888539679261   10.57677428183897   15.62545250473299
C         1.49852193467683    8.52133948245483   15.59772254454886
H         2.02986700269695    8.58040131590526   16.53598520552432
C         1.44757936165452    7.32130142087120   14.90662006374525
H         1.93821051337853    6.44498458491521   15.30468344518358
C         0.76570273258397    7.23818212268267   13.70693034374298
H         0.71652882247364    6.29683744403754   13.17606733328465
C        -2.28369281321491    7.91397710737857    8.02887909147530
C        -3.64880700834763    7.93379651047922    7.75111472424170
H        -4.23322173785632    8.80252471175264    8.02623149203243
C        -4.24525623469199    6.84843696953618    7.14114289396577
H        -5.30464323098786    6.86248339808452    6.93409349437435
C        -3.48524889244717    5.73740157291872    6.80926162402353
H        -3.95374715883980    4.88302946739221    6.34347567865834
C        -2.12639370585391    5.72088584597546    7.07215118410647
H        -1.53298102677045    4.85841612916932    6.80496487005278
C        -1.52152740924347    6.80662038351417    7.68086225794333
H        -0.45751572275799    6.79615186073728    7.87284097935351
C        -1.64569575483751   10.61798398348154    7.57147064327113
C        -1.61364232543426   10.23970186885668    6.23038652581940
H        -1.58941083719219    9.19137051687700    5.96434371006265
C        -1.62574654445189   11.20448502519853    5.24025630556716
H        -1.60115420844547   10.90588752709791    4.20226275141797
C        -1.67321786421395   12.54803513874005    5.57646256907772
H        -1.68588110638027   13.29753055920301    4.79910792822973
C        -1.70945773629713   12.92746462739949    6.90788461940596
H        -1.74959826447351   13.97331028711350    7.17292875530969
C        -1.69792510802660   11.96797771958924    7.90423903747475
H        -1.71943093716634   12.26562173103141    8.94343756739075

