31
CSD_code = ZEWXOO | q = 0 | S = 0 | Stoichiometry = C14H12Br2N2Pt | MND = 4
Pt        5.03633547402507    1.82781778485141    3.39251596783317
Br        5.44979918910606    1.59743992155168    5.72411855003105
Br        3.81970152107003   -0.21496130174908    3.48920160931062
N         5.04648685203275    1.92730975599958    1.33160508136758
N         6.36040663794558    3.38943227515818    3.13427463340259
C         4.27232063409396    1.40197027889272    0.39190644999296
C         4.79234913005982    1.10569569330093   -0.88089021942518
C         6.09420770009641    1.39967625678123   -1.19309182028585
C         6.88501176202501    2.07763686529592   -0.24726094919623
C         6.30452092808125    2.32287041003400    1.01161314340916
C         8.20523335482356    2.54047462330815   -0.49906083196136
C         8.87313989849181    3.28577087432393    0.41752956116132
C         8.27559376010175    3.62849131571524    1.66094840216593
C         7.00695154968139    3.10546724339835    1.97547651212105
C         6.87076278551079    4.29525272058348    3.95735984509538
C         8.14457843106554    4.84189719873968    3.71904707970637
C         8.86351505663674    4.48808813354345    2.60697627367962
C         2.83162680879969    1.16679477784309    0.67788788523658
C         6.06668297919451    4.76522525055837    5.11711790361049
H         4.14263774919473    0.63731114508399   -1.60336360643680
H         6.50791045939714    1.15379274532290   -2.15934365352138
H         8.65405377939668    2.30207284052393   -1.45154946530067
H         9.86656333950208    3.65532143177703    0.21239127708874
H         8.54358637505380    5.54255350421035    4.43554402914994
H         9.85167079320652    4.88453660243984    2.42913433045618
H         2.52534429293937    1.71130785262325    1.56975941511422
H         2.22857524154502    1.48040511464216   -0.17206649203295
H         2.64844568484148    0.10742431257070    0.85623015661897
H         5.01976867383094    4.49318007145369    4.99144014459374
H         6.42170338946089    4.30126745714344    6.03712201022853
H         6.15871576878972    5.84467684407837    5.22012677678609

