86
CSD_code = ZEWZAF | q = 0 | S = 0 | Stoichiometry = C39H40BrN2O3Re | MND = 6
Re        5.06953410832494    4.49982908183015   11.05496693326159
Br        6.34246821959418    5.02893016176447   13.23959853956741
C         5.97843148662187    6.07383304097855   10.33647027901704
C         4.39036491019455    4.13955266612678    9.26970012633026
C         6.52444805706128    3.23575958487546   10.72730622369203
O         6.47733787399709    7.04605254882451   10.00173316694331
O         4.11369699341256    3.94911335921970    8.17189893570757
O         7.35482060936878    2.45531453887871   10.64357328591775
N         3.37297919292744    5.65481753951175   11.77180950890568
N         3.87958747300154    3.02215354046741   12.12180289867368
C         2.61825421503582    4.98103245303181   12.57961528328039
C         2.89137266970976    3.55294125160814   12.76744812700804
C         2.97727800498649    6.97769885378422   11.43244577935243
C         2.14774875442084    7.14931726175560   10.31484661867404
C         1.76578873760380    8.43570330040436    9.96455453960579
H         1.12042353397848    8.58285196556021    9.11300551414173
C         2.19333777961871    9.52973267645407   10.69119211831043
H         1.89260572520465   10.52482332559598   10.39940192794049
C         2.99569785345868    9.34398579909952   11.79840498793559
H         3.31785476224171   10.19909572344523   12.37179428534223
C         3.38990816431799    8.07399666504389   12.19850300069013
C         1.62956077120638    5.97271820594065    9.51915269812945
H         2.17896313359996    5.07218355026804    9.81548766338637
C         0.14735661791454    5.73793766518595    9.82598679310355
H        -0.00412005582352    5.53187375600269   10.88461288821811
H        -0.22224273171564    4.88943796094660    9.25411559986148
H        -0.44043351286549    6.61414115546274    9.56206070879222
C         1.84501459266099    6.16873585328416    8.01788686413403
H         2.87439705647344    6.45632183828626    7.81705568982577
H         1.18587222062095    6.93613104282422    7.62107211069754
H         1.63952586927382    5.24033281871155    7.49000649544926
C         4.23190171610783    7.91637135952423   13.44101034332565
H         4.42070798878398    6.85703527523670   13.62076504574663
C         3.50947477283586    8.45968145881604   14.67594197551458
H         2.56328643209281    7.94348829576532   14.83242975148562
H         3.31019093464702    9.52452496162046   14.58146024257530
H         4.13156164711937    8.30451637030659   15.55413440190683
C         5.58482026025276    8.60801887861960   13.26357791569111
H         6.07510055319338    8.26262324107637   12.35704134289631
H         6.22903212489042    8.37197044717655   14.10654734731774
H         5.46867483316859    9.68737975535427   13.20090009948809
C         4.02766534526136    1.60890948545415   12.15875534714701
C         4.74995013532520    0.98606901723665   13.18363428233966
C         4.89126922434252   -0.39487132224343   13.14476770461211
H         5.45791518089943   -0.88676126048828   13.91983473151619
C         4.31425943331795   -1.14720011694084   12.14217116155783
H         4.43238659946933   -2.22037991145345   12.13227933594287
C         3.57345318204901   -0.52238714747379   11.15806827330129
H         3.10357410607464   -1.11534519433916   10.38938465044657
C         3.41877999581410    0.85566922141443   11.14486330243788
C         5.36838866125339    1.76064568023704   14.32194726304542
H         5.13945988938177    2.82152727321666   14.20938467392283
C         6.89060947404398    1.60843988530616   14.30722985249569
H         7.29120201015350    1.86733099597346   13.33040757102212
H         7.18534322416214    0.58797300618807   14.53990693907447
H         7.33194563739076    2.27810970863948   15.04073757636387
C         4.79786032006013    1.31820611113825   15.67144006640375
H         3.71935870569870    1.46602505795692   15.70626549051675
H         5.24859020363942    1.91000528082549   16.46448600181981
H         5.00855829327535    0.26917187834441   15.86537580913072
C         2.56351006644505    1.50273104190506   10.07950232808526
H         2.71188930377472    2.58768301860489   10.11469636578757
C         2.95313957420043    1.03083366789666    8.67823281545929
H         4.02752699535738    1.11929165009712    8.53425967612458
H         2.45583818812883    1.64317935256115    7.92957284437815
H         2.66426714798470   -0.00391730190747    8.51494394934891
C         1.08205984487459    1.22588001691269   10.35287544553811
H         0.78508528549164    1.61973452074307   11.32398562976168
H         0.88550356147308    0.15621467627515   10.34419588955923
H         0.46728291031036    1.69592799945891    9.58824431793291
C         1.40466724810083    5.30479293908621   13.31618066596535
C         0.64150263601295    6.43299557420391   13.50279861904534
H         0.89405654093604    7.37681587929142   13.04474090795356
C        -0.50790870523403    6.33573477871960   14.30848191610111
H        -1.09835930972637    7.22791296273004   14.45714782122246
C        -0.90572900518542    5.16204577721702   14.90109887408080
H        -1.79823846241502    5.13414387067096   15.50862756948877
C        -0.15746003588692    3.97823655908709   14.71254404709638
C        -0.44104614325863    2.68796801880242   15.21423419115254
H        -1.31149701594351    2.54041999111179   15.83632384869498
C         0.37611676812945    1.62822683043966   14.90423147147502
H         0.13635518909818    0.64760175297240   15.28845136622802
C         1.52187799359421    1.75789572364896   14.09777576582886
H         2.11629888490815    0.88637122766530   13.87061376243845
C         1.84027865283781    3.00416624125667   13.61263532397554
C         0.99012791485040    4.09391635292957   13.92384649632033

