86
CSD_code = ZEWZEJ | q = 0 | S = 0 | Stoichiometry = C39H40BrN2O3Re | MND = 6
Re        5.52166658337333  -11.93730367432868    5.03508761216029
Br        6.01081891635096  -13.23473282013792    2.85326060370329
N         4.06046078177511  -10.72448438224612    3.97050690303415
N         6.70353655411777  -10.26744891991630    4.30326874308853
O         5.01084399569568  -10.95631313219891    7.91718631798804
O         8.04215987101596  -13.39486034341802    6.08252765346597
O         3.43483907498001  -14.17888792935962    5.47438668834146
C         6.03977437106812   -9.50214895246558    3.49699160036681
C         4.60592320832665   -9.74880244420907    3.31791723023657
C         2.32833882268192   -7.88196216044854    5.73515331648045
H         2.72042838008764   -7.59733429604068    4.75964740156902
H         1.26258858012169   -7.66545574515824    5.75057727070158
H         2.81532346063212   -7.27220174783613    6.49313325714803
C         1.90928552747909  -10.21464274552617    4.95676752260542
C         9.11937178348027  -10.33566030342612    3.86386066361251
C         4.07320371417153   -8.69236014684365    2.46908675273337
C         2.75660290916990  -12.20273592784021    1.78780294580958
H         3.82217197024749  -11.99141591245430    1.89087052160950
C         7.44589674744727   -6.41272774365729    1.74359789564940
H         8.34823203220212   -5.83967386065649    1.58835556245998
C         2.71976358036060   -7.20997460645352    1.17439032825009
H         1.74203438126082   -6.95327088929487    0.79367351913192
C         8.03593509008558   -9.89626892548132    4.63325636547789
C         0.52822428439302  -10.34033371447424    4.95161757177437
H        -0.05062943754761   -9.85333888806393    5.72041898147906
C         5.17784157383851   -7.86585616737052    2.14655015447639
C         2.00107907758158  -11.56105176653493    2.92604329910723
C         9.52628292158212   -8.70731332282297    6.08681809688973
H         9.69135803887334   -8.06089654467116    6.93427716882764
C         8.93759199462690  -11.18051674065585    2.62663163185988
H         7.87385916910725  -11.35175601709428    2.45583038400131
C         2.57940751815255   -9.36697340246451    6.01389496021334
H         3.66113225830459   -9.53597603260037    5.97261433442803
C        10.39932123660254   -9.96520027894428    4.25480989732518
H        11.24449689744286  -10.30749187598473    3.67832792768803
C         7.26673323694035   -8.72400311580537    8.04441742678149
H         7.53178458565515   -9.75804917407065    8.25208001411866
H         8.05058112905484   -8.07941619652803    8.43285081586367
H         6.34559246043355   -8.49330061583488    8.57461292970703
C         5.18510368021283  -11.24183813988095    6.81881542208128
C         2.83083009668135   -8.35214681025062    1.98870316422491
H         1.94869655846918   -8.92692558086626    2.22537609513696
C         5.08089883595984   -6.72198896431554    1.34999160094142
C         6.27797106908557   -5.99776678364663    1.15142587327811
H         6.26479852587238   -5.10973049620432    0.53688572837340
C         6.38319365288811   -8.29932595676971    2.75198476918666
C        10.60744478859395   -9.16135634459220    5.35693094378179
H        11.61004457514775   -8.87995920992631    5.64219660828347
C         8.23037269664767   -9.06382464477535    5.74493241432019
C         4.23083398309566  -13.36462651202076    5.37947798592387
C         9.48363233602242  -10.47298960342589    1.38430609739421
H         9.31585091086716  -11.09841735716307    0.51086610876782
H         8.97810775601801   -9.52158012273678    1.22484497893048
H        10.55130015732523  -10.28598133967789    1.47175689809400
C         0.61767638425002  -11.67311084971402    2.97289689857940
H         0.10989163245530  -12.23443025872560    2.20421541479624
C         6.86529449557085   -7.03027934015934    6.22637912854921
H         6.02724873102475   -6.63837376476005    6.79879981263250
H         7.75516140824560   -6.46017806571565    6.48330378838409
H         6.65869327995999   -6.88119651144160    5.16755328911678
C        -0.11721547188597  -11.07365015146999    3.97525094218636
H        -1.19262364167098  -11.16842161354626    3.99087383446370
C         2.64428824723848  -10.84504296951125    3.94263383049174
C         7.52455541019027   -7.55813622753743    2.55695324379885
H         8.46486504651549   -7.82464871454642    3.01427621786415
C         7.06887791220487   -8.51518922975571    6.54246378009116
H         6.15524193688208   -9.04690366599981    6.25397160119624
C         2.31386588247685  -11.63630469697417    0.43667671292816
H         2.48007064140846  -10.56085981537964    0.39184600407966
H         2.89197942046154  -12.10376896729692   -0.35675952962468
H         1.25996628622243  -11.83033052396779    0.25183000916945
C         3.79401266502440   -6.41678787125258    0.85226007398250
H         3.66075659213932   -5.54872546325426    0.22363562930696
C         9.60737745682614  -12.54433112730367    2.80464807793005
H         9.35385391439458  -13.18796234620206    1.96634007922211
H        10.68908520319181  -12.44720866676789    2.85918347879721
H         9.25982596555010  -13.02455015783468    3.71575520560734
C         7.08035084694179  -12.87556590811927    5.74862439538820
C         2.10932434296041   -9.74149348813689    7.41991143260943
H         2.73641082288392   -9.25341981744246    8.16239869056067
H         1.08160976636123   -9.43156871542406    7.58887806252476
H         2.17745808466340  -10.81681751363901    7.56781067618427
C         2.57745521686667  -13.72179862991791    1.81693006816183
H         3.23028853573443  -14.18098695653088    1.07923199612177
H         2.84126084152715  -14.11884799561560    2.79382514215396
H         1.54915524067789  -14.00041064566020    1.59930505331613

