31
CSD_code = ZEXHOZ | q = 0 | S = 0 | Stoichiometry = C6H14N4O6Zn | MND = 4
Zn        3.23252501437498    2.14563803811838    2.58122846365356
O         2.57998780153429    3.87306541962928    1.75971127558567
C         3.32638665175232    4.39441749955027    0.92312651925119
N         4.59291759813621    4.74539163196538    1.20465577761366
N         2.83196947210932    4.76863591849281   -0.28549912514615
O         1.42989626848730    1.28151245880744    2.28835425472527
C         0.96101013910736    0.67246082812792    3.25691735975231
N         1.60045371983212   -0.35565200542858    3.84125908905654
N        -0.30483339376076    0.93482132816051    3.67365812726092
O         2.95466295146130    2.45371206888537    4.55401093311740
C         4.06293325972578    3.03055495745442    4.61022504394477
O         4.77452563146914    3.16465015745136    3.59121586132307
C         4.55948574665440    3.56217400779561    5.93699452696075
O         4.28016076364948    1.56769180498309    0.96010978934042
C         4.57017819095682    0.49846917828082    1.54056019595491
O         4.15870711011913    0.25788526102791    2.69615247912011
C         5.44846846819858   -0.51445677428658    0.83926182285685
H         4.96299484832786    4.33234486685283    2.05371397027984
H         5.24271386438547    4.95265395135417    0.46637157899419
H         1.93126610320893    4.39068261202376   -0.52602254183379
H         3.45190748160291    5.00634808998532   -1.03964872431247
H         2.58342656223773   -0.42634016681061    3.60180404169760
H         1.32010026055240   -0.68100257620642    4.75010794408277
H        -0.71619632453901    1.78047223460155    3.31641911574604
H        -0.62829915216498    0.60171569026091    4.56467505205484
H         4.99908803944977    4.54543276002342    5.79563100118163
H         3.74117636253161    3.60690533891032    6.64842164834727
H         5.32947086698720    2.89064053254206    6.31028843063583
H         5.44657000553007   -0.32944161920588   -0.23008380968639
H         5.09762428856094   -1.51900296641497    1.05715230830638
H         6.46192139952117   -0.41148052693211    1.22122759013526

