53
CSD_code = ZEXMAT | q = 0 | S = 0 | Stoichiometry = C20H26MoN2O4 | MND = 6
Mo        4.36349146204390    2.70102341066407    2.68032269463693
O         2.74529520121835    2.76179285005833    3.01118884817685
C         6.55728453099366    0.18467873871374    2.31349549058224
H         7.43883844588248   -0.25207739608415    1.81718787064140
H         6.59389010406458   -0.08917749253120    3.37497579548533
N         6.54602201932061    1.64035183990652    2.22840440342795
H         6.71573288038276    1.92793616498032    1.26398673495636
O         5.14510903953864    4.15783787038573    2.69635911347956
N         4.12479694338187    0.26827464850847    2.31062383836678
H         4.01564225296476   -0.08651415777257    3.26143940920436
C         5.27832959668878   -0.36659243677198    1.68426504100901
H         5.25725761681862   -0.12317299278837    0.61513626000729
H         5.25203908548442   -1.46369660608499    1.78594994007773
O         4.31863758979660    2.45207535730737    0.86696748421100
C         2.87401761183103    0.04239659500432    1.58503588895947
H         2.07404601628646    0.49293752610171    2.18451501970784
H         2.67251747341725   -1.03758640436054    1.48199623474395
O         4.92676286385655    1.99739607459080    4.27080769810641
C         2.85213478331273    0.68025416492663    0.21614683767670
C         3.52818141783326    1.88150609893538   -0.04235921851320
C         3.39375651809841    2.49056389458232   -1.30543907351134
C         2.61649643867664    1.88646880763959   -2.27514394772561
H         2.51261584609822    2.36491311636551   -3.23888160748117
C         1.96357412727824    0.68126894564321   -2.04036909750115
C         2.09049870554745    0.09857445170570   -0.79044065928310
H         1.57408055429662   -0.82874039816140   -0.58203740441845
C         4.09490064131264    3.79520918045365   -1.54042271033910
H         5.12591572778162    3.62372080556303   -1.85400305141027
H         4.11762916795008    4.36664295347966   -0.60994357064148
H         3.59219883441956    4.37129962446801   -2.31291667674869
C         1.12544192059806    0.05148151697524   -3.11278986051385
H         0.81636302384017   -0.95056107457511   -2.82698939118530
H         1.67824342055678   -0.00530502793689   -4.04892982584383
H         0.23159624486709    0.64886631580217   -3.29012793095815
C         7.54638773497082    2.27838123140052    3.08632935844287
H         7.48926380021654    3.35598604122931    2.89171385028240
H         8.56060732650465    1.92610419112239    2.83288870589558
C         7.29734541029644    2.04756235856949    4.55755393376839
C         8.37557589053598    1.96195283792604    5.42928224675238
H         9.37763394961663    2.01533443294065    5.02552446019344
C         8.20021621384009    1.82649643618063    6.79696940925458
C         6.90258518727431    1.78346565013610    7.29413775875108
H         6.74739227020962    1.69470795871080    8.36022586200779
C         5.80310778033179    1.85248516769895    6.45934953243533
C         5.99266904693742    1.97722882750642    5.06929096341936
C         9.37355685497359    1.75653360469757    7.72831350536656
H        10.29223546460711    1.55655005777089    7.18283842602610
H         9.22876231276286    0.97570993816903    8.47242918685068
H         9.48926128064399    2.70283318253187    8.25653580005175
C         4.39854514069568    1.81264232141530    6.98368801190727
H         4.35615033746757    2.18148844883319    8.00536546399172
H         4.01488460792375    0.79099333112513    6.97066993475589
H         3.75538128375129    2.42149701634247    6.34498301246703

