53
CSD_code = ZEXMIB | q = 0 | S = 0 | Stoichiometry = C24H22MoN2O4 | MND = 6
Mo       14.42143097530579   10.50961585648838    1.84433838345512
O        13.68267791940126    9.04650067323098    1.67191210078829
N        15.04344616595325   12.56038832277675    2.89216711752612
H        14.56124697168426   13.24303751454138    2.30527076923882
C        16.86568485258652   10.40692253519970    3.50181165561568
N        13.13964903941963   10.78430894065323    3.84724547180033
H        13.62692123639119   10.18205227029483    4.51288308755855
O        15.45076702533006   10.93456438626131    0.62808563415329
C        17.69502980043189    9.40432171970443    4.06967320452873
H        17.27225601827006    8.41297543879086    4.15547941997930
O        15.62832121023003   10.04601290762988    3.17324402530114
C        18.96420671526068    9.68376265723946    4.46724229929059
H        19.58858548672076    8.91408065227003    4.89711789088716
O        13.01149235875403   11.64246306389345    1.40718822446804
C        19.49483167720913   10.98170198852541    4.31019006462820
C        20.81629015128845   11.27210102862825    4.70193971897402
H        21.40581203603576   10.48053995675018    5.14217639618308
C        21.34789918148627   12.51791450287400    4.52383266508646
H        22.36193513396189   12.73412762663520    4.82461887541680
C        20.56832981138695   13.51943239078690    3.93167792469832
H        20.99487097115049   14.49927179844528    3.77342659494104
C        19.27948697422025   13.26905409727931    3.54711370295500
H        18.72386559989038   14.06263519599818    3.07340713166164
C        18.68491833697344   11.99914727844719    3.73241149207921
C        17.34394137495004   11.70361367179917    3.35759034314222
C        16.48335123543991   12.78963605195031    2.74833058636396
H        16.73811823509581   13.75839357229566    3.20410110646201
H        16.69449876228660   12.83411401699094    1.67387545827216
C        14.57269559789416   12.69742551371846    4.26608638287398
H        14.60063206255869   13.74414807436406    4.60827308054886
H        15.23588277901732   12.10994767720236    4.91310784475022
C        13.14859757206219   12.15186211732659    4.35514864962546
H        12.78565277708750   12.20696277685256    5.39409178942192
H        12.47997281989047   12.75404644418146    3.72797795328565
C        11.79274543363006   10.24107645099597    3.66184830884965
H        11.21160936070432   10.40024306790334    4.58437042301198
H        11.90155034260108    9.16430353263139    3.49054360178667
C        11.03714893229888   10.82980648672404    2.48953278857018
C         9.62401946629019   10.66785650346783    2.43368605392376
C         8.89084843910035    9.95191056462935    3.40834410942884
H         9.40449814303704    9.47498481754534    4.22784388878844
C         7.53153725568655    9.81985412401895    3.32646930511778
H         6.99962899831042    9.26080526775390    4.08265735621447
C         6.81779908667096   10.39507370518933    2.26775695469642
H         5.74485198684726   10.28398322635547    2.22092466023467
C         7.49262594781855   11.08071610857858    1.29736010288882
H         6.96210614696837   11.51869323506001    0.46397284236429
C         8.89279501696274   11.22526046112546    1.34858574792328
C         9.58952113913233   11.90086683815900    0.32401216276045
H         9.02912429000588   12.31671248331522   -0.50067390327825
C        10.94362872538621   12.00941150865646    0.36616683738059
H        11.50447891869463   12.49619144616702   -0.41968099322660
C        11.69168350422488   11.46636745169482    1.44374270659799

