51
CSD_code = ZEXVOP | q = 0 | S = 0 | Stoichiometry = C22H23IrN2O3 | MND = 8
Ir        1.35465706218584    4.05226809282435    4.86202483235273
O         1.40601448190148    0.95213461945533    4.11195672684470
O         0.44722691826175    4.05107415887911    2.69247179807106
N         2.72462566256394    2.77187426135693    4.02026253999171
C        -0.61744814114680    4.05081312600874    6.07448787650219
C         0.12812817708249    5.21625296140778    6.42409959625516
C         1.39604487115935    4.78196547153933    6.90983363940940
C        -2.02030529189661    4.04974881654793    5.55819300286154
C        -0.37832144888983    6.62027032319978    6.47149346558342
C         2.42527458159568    5.66675725913867    7.53202594016793
C         2.51887011553572    1.43325627488087    3.87515376948587
C         3.65884933245222    0.65210122245779    3.42800360386739
C         4.83729469470756    1.22034593861856    3.08463436239013
C         4.98446769721715    2.63384789599108    3.13234094208373
C         3.87878246135007    3.34381182268584    3.61247440743964
C         6.11560423769192    3.36704360662494    2.70262798786518
H        -2.71873456668293    4.04938189158755    6.39723430727776
H        -2.21717326821940    4.93555736243684    4.95760475719943
H        -1.45026659462843    6.65425210916090    6.29728205931665
H        -0.16923345691282    7.05393788742357    7.44836349244696
H         0.11967671511451    7.22452042188690    5.71419155162402
H         2.18469955078193    5.82229060936879    8.58560988309855
H         2.43920281913290    6.63358573546727    7.03513888195790
H         3.41656773251437    5.22443382147399    7.46865542250507
H         3.50553809492047   -0.41543876671866    3.37690966483011
H         5.67007287800104    0.61510545572110    2.75265619084048
H         6.97703232612782    2.82068353432631    2.34707717387938
H        -0.09791499836761    3.26035133077258    2.61614351868344
O         1.41151993368436    7.15409638837597    4.11893345243896
N         2.72644886440578    5.33183218379754    4.02204091995615
C         2.52286290563401    6.67108792622029    3.87937126654529
C         3.66355775901080    7.45092720520913    3.43163432533867
C         4.84093142043255    6.88139040876190    3.08686862561292
C         4.98624997302267    5.46765993565263    3.13352120084848
C         3.87967743344601    4.75876611485860    3.61321527936821
C         6.11641109986952    4.73337170457468    2.70314003400152
H         3.51162668088007    8.51870954502381    3.38155344832747
H         5.67426997183301    7.48575631762034    2.75470291802910
H         6.97848264837711    5.27896502961922    2.34796265105608
H        -0.10751451562431    4.83503603131450    2.61633883205359
C         0.12969513237290    2.88670925565682    6.42441995768811
C         1.39729243170377    3.32304219806755    6.90963541905386
C        -0.37476288179727    1.48198279141056    6.47213314122785
C         2.42778417541872    2.43983415878429    7.53204724316426
H        -2.21588453010936    3.16350152962780    4.95783910066144
H        -1.44711392331612    1.44684531095574    6.30037429032536
H        -0.16286973368786    1.04792479192850    7.44827041519031
H         0.12208222959194    0.87878261487755    5.71315268037256
H         2.18760411580955    2.28445073802985    8.58574451039051
H         2.44293227437632    1.47279129301694    7.03562168939222
H         3.41848389111313    2.88340928209092    7.46832720412316

