54
CSD_code = ZEXZOT | q = 0 | S = 0 | Stoichiometry = C25H23N3O2Pt | MND = 4
Pt       -1.86313299285425    9.29722423819529   -2.77810436001011
O        -1.76436076406694    7.81049459485503   -1.41340731881506
O        -1.97057204389284   10.69232733622969   -1.12187753920130
N        -1.47268713312495    6.95970738990949    0.70582601227315
N        -1.34402124040004    7.40303904458488    1.98358972745862
N        -1.96917769745527   10.67383523938534   -4.14658216755183
C        -1.66071095430139    7.99917937860696   -0.16312122843237
C        -1.69756880552544    9.18196568138961    0.64464838453160
C        -1.92109873133014   10.46689881131966    0.10641020961611
C        -2.17761720891782   11.64289501912877    1.03926975456430
H        -1.52877472387313   11.55522975449119    1.91121438116183
C        -1.89750047075869   12.97179374910212    0.34183525644702
H        -0.87065149232079   13.00674178768685   -0.01638899658229
H        -2.05323616199086   13.79596146158945    1.03427345230120
H        -2.56538860913070   13.10261477665803   -0.50665145540969
C        -3.64309309780187   11.57231652936031    1.48342148893167
H        -3.86693847759719   10.61347272911849    1.94528451871792
H        -4.29826837968455   11.69616196910181    0.62315853481981
H        -3.85772548073534   12.36453252937349    2.19770150375790
C        -1.48301380397731    8.69784396984959    1.97942487076413
C        -1.35442162573935    9.42327993724976    3.27264930328271
H        -1.18135731297623    8.68573189290879    4.05224114883470
H        -2.25561541601156    9.98360568211133    3.51180277485212
H        -0.50889028212627   10.11012134113933    3.24868811758019
C        -1.36885377237376    5.59141151758123    0.43556037670233
C        -1.91512028283774    5.03546284490639   -0.71613768597363
H        -2.44052963076502    5.66030216490917   -1.41918416592351
C        -1.78400803775145    3.67795948488513   -0.94599744171098
H        -2.20619091609367    3.24956841605238   -1.84328275181062
C        -1.12825562487211    2.86862317385986   -0.03394337634525
H        -1.03048226365795    1.80948826684497   -0.22066525236068
C        -0.60404163564137    3.42277282397492    1.12282913934022
H        -0.09791140243397    2.79562720813098    1.84199731475454
C        -0.71970275833240    4.77813572948980    1.36084695005170
H        -0.32153950370265    5.22737382403303    2.25647785038646
C        -2.00383621395295   11.97710944561523   -3.86876971811758
H        -1.95488364930948   12.24344004929169   -2.82163596820209
C        -2.09645513038967   12.94729938362835   -4.84745484456427
H        -2.11983834574712   13.99005658213891   -4.57479900545761
C        -2.15816969640413   12.55100737438418   -6.17753449718318
H        -2.23393766817757   13.28319014208881   -6.96681451859306
C        -2.11653012264121   11.20151501251673   -6.47123383921062
H        -2.15780185307459   10.86444707908185   -7.49413174583550
C        -2.01824566730423   10.26721731831302   -5.44258132429055
C        -1.93545086261109    8.82432934892866   -5.59950657695176
C        -1.94724416582367    8.14743743799130   -6.81804824231128
H        -2.04794174219937    8.68821276792288   -7.74778486939244
C        -1.82840826295208    6.77197998913807   -6.83615981859000
H        -1.83908123694654    6.24219920891236   -7.77758527289006
C        -1.68811362243204    6.07157570794542   -5.64677477782871
H        -1.58541902703931    4.99587000529928   -5.66959285281942
C        -1.67884763621962    6.74034547848333   -4.43262501745101
H        -1.55964403224945    6.17956350113502   -3.51752993207255
C        -1.81049232947293    8.12180386916995   -4.37974450924056

