107
CSD_code = ZEYCIS | q = 0 | S = 0 | Stoichiometry = C54H45N3OP2RuS | MND = 6
Ru       -0.33956592628561   10.02968374183351    4.56574747130517
P        -0.85108511951149   10.95909182713006    6.59833402506725
P        -0.06896403932829    9.11028124424481    2.47504193386619
S        -1.79605764956989   11.85924593863059    3.62317605162069
N        -2.38036344986168    9.51022329834673    4.40699326498244
C         0.00405813217353   10.35576605125957    8.09460466446331
N        -3.19826666173703    8.44880821246311    4.53790616972916
C        -2.91055372532560   10.59685255461425    3.87686669205556
N        -4.21415370716639   10.68382736079816    3.56838704934290
C         0.88428565441667   10.08569639040459    1.25304786492626
C        -2.60641983770921   10.76504558230074    7.03390744685800
C        -1.63296432519252    8.84992368373222    1.57545227662260
C        -0.57779057786950   12.74950060305083    6.84899269596822
O         2.48463798460261   11.01565355620663    4.45384216463824
C         0.77706478096054    7.49934113942032    2.33642334505251
C         1.38903639540514   10.65359216556800    4.53100096163143
C        -2.66641763519073    7.35408218845573    4.94069907382702
C        -2.60803854335270    4.90451341566254    4.82875527881504
C        -2.16367041078530    9.87963965874068    0.80305015312881
H        -1.58527211393823   10.77949670362238    0.63853236784079
C        -0.56390588907151   10.37588808159287    9.36449180014764
H        -1.59081990661819   10.68612357399798    9.50039385626131
C        -3.35931891079216    6.09365550575030    5.01824726580831
C        -3.03265924480109    9.53916137209912    7.54120302569528
H        -2.29994467929477    8.76803512259205    7.74457642729452
C        -2.39128047421305    7.70361643681429    1.80491305456460
H        -1.98997802253897    6.90545633208037    2.41460326797962
C        -4.75213026259206    6.01666023738869    5.25858742698322
C         0.20731031846341   13.45576894938824    5.94719808581986
H         0.60701819687375   12.94795076311390    5.07885238204618
C        -1.09856000742862   13.40343298616575    7.96259445303397
H        -1.71028031180238   12.86248740632420    8.67050297559181
C        -3.54366152721946   11.74394835402577    6.71858520411801
H        -3.21684322964258   12.68464687557589    6.29387520644009
C         1.44234080440603    9.49709375879339    0.12206913744188
H         1.33639831555141    8.43506489043337   -0.04502556003566
C        -4.83761542584217   11.80722271309864    2.93234054709514
H        -5.66852151464173   12.17357076863194    3.53959195731491
H        -5.21232227915282   11.53492155653366    1.94257978326725
H        -4.09560382386202   12.59796321586220    2.82702790015597
C        -4.37596125305410    9.31381763455515    7.77268406837990
H        -4.70287181988564    8.36493798168995    8.17269812280874
C        -5.55918002833486    7.16045365879028    5.47072240767056
H        -5.08766271221558    8.12897721085084    5.45161768274556
C        -1.22523125102860    4.89569311537432    4.51121436324480
H        -0.68219873370787    5.82262342003050    4.41390508621602
C        -5.38900839026594    4.73902862473028    5.32761628547959
C        -0.06209384753559   15.44780977704059    7.25227893587508
H         0.13467862333122   16.49827076803665    7.40948889722122
C        -6.89864459620348    7.05629144736187    5.70274687826639
H        -7.49085234005669    7.94603994267712    5.86323422823744
C        -4.88867458787163   11.50853299538616    6.94298465157825
H        -5.61396207677040   12.27210463169524    6.69934697082669
C         2.29351295241214   11.62982845711011   -0.57951349594548
H         2.84513698010117   12.22695787407295   -1.29081439273261
C         1.03686316668524   11.45363065452901    1.45370462767609
H         0.59574635198852   11.92027939055902    2.32562030925332
C        -0.84303588414810   14.74692113731233    8.15820763831124
H        -1.25383311729079   15.25078032141437    9.02144340365681
C         1.73704325640401   12.22180849509886    0.54128016410150
H         1.84944510789969   13.28314486191175    0.70775568468792
C        -3.26743030331473    3.63759359640158    4.90384125034749
C         0.48893193298211    6.54771440559588    1.36189242695618
H        -0.30199071752583    6.72145817171456    0.64474309855859
C        -4.63506946052936    3.58321061653421    5.15456465456236
H        -5.12469301045924    2.62017014396420    5.20352572937764
C        -0.54409210978187    3.73112678315660    4.31118925943622
H         0.50772282431725    3.76320949308173    4.06790216462616
C        -1.19540910470257    2.48806485657063    4.41158706940739
H        -0.63552148263025    1.57798020371238    4.25355155719638
C         0.46288743845073   14.80066996199299    6.14718361732319
H         1.07123066496158   15.34329407974458    5.43858567982591
C        -5.30491737299998   10.29975677070806    7.47552325510855
H        -6.35537575599479   10.11938100793227    7.65178959736819
C         1.31973505320392    9.93148856213227    7.94088829409036
H         1.74465712033967    9.90032991812029    6.94423071991962
C         0.17833466000144    9.97473008207935   10.46052861006587
H        -0.27029276202472    9.98676910282400   11.44360753253309
C        -3.42817962235100    9.75505919329728    0.25669681080332
H        -3.83081014394145   10.55525192015334   -0.34825776722981
C        -7.52601532924289    5.79653891547471    5.74342858782126
H        -8.58922818157966    5.73590210200850    5.92524484790100
C         1.21162794169235    5.36885867092236    1.31093895739429
H         0.97704365646024    4.63055761714401    0.55756877918651
C        -6.78522235193678    4.66900811259984    5.56794007049236
H        -7.24552596844613    3.69189934008815    5.61059574589939
C         2.14299626375468   10.26813323585579   -0.78665039907623
H         2.57615447386053    9.80306046102183   -1.66054498695454
C        -2.52413923404271    2.44699700629519    4.70034431572672
H        -3.04674489969877    1.50359809648648    4.77316346427902
C         1.80760851269747    7.26042569435539    3.24078765606245
H         2.01860521142609    8.00664246842422    3.99923453550657
C        -4.17903061755859    8.61452515361638    0.49132517090592
H        -5.17138934741928    8.52438392741261    0.07321206775334
C        -3.65812206793681    7.58910453054428    1.26456387291321
H        -4.24249377349919    6.70100232508164    1.45768012869841
C         2.23224328302737    5.13486827089366    2.21752644072464
H         2.79349374145987    4.21271702731073    2.17121422993697
C         1.49030112238739    9.55973556920940   10.30247103133356
H         2.06541422908289    9.25002023700202   11.16276773775813
C         2.05982457244191    9.53633849963690    9.03992643355345
H         3.08071609051445    9.20752861393372    8.91243984468175
C         2.53238260004698    6.08447642164853    3.18100668290236
H         3.32937249608872    5.90620499433605    3.88795610707480
H        -1.59692479355564    7.36693493629705    5.18362900927187
H        -4.74248776441877    9.83140084971205    3.70081958488028
H         0.08888513543056    8.73201143600257    5.25974485678876

