104
CSD_code = ZEYCOY | q = 0 | S = 0 | Stoichiometry = C53H43N3OP2RuS | MND = 6
Ru        7.67266208841504   15.74386754393791    4.57369531045400
P         7.29082950030247   16.68176003798662    6.63948462508386
P         8.28301021705575   14.85397505620108    2.54969391007524
S         9.16763093677508   13.98191089203763    5.59316441513462
N         9.69015999670670   16.34093229669795    4.79542912278198
O         4.90391786733214   14.60684582832086    4.61365321238601
C         5.97714555055981   15.03454214204130    4.56367743286432
N        10.47007998215139   17.43506589175012    4.68917378778877
C         7.38477638249930   15.37428058834257    1.04706553312953
C         6.32426816152937   18.22853733633255    6.71555372795629
C         6.38876552898025   15.67228376977418    7.87223468421292
C        10.01118176630962   15.22640570191090    2.12474361756445
C         8.81194376028079   17.08175766817780    7.56067090567204
C         8.18095866732025   13.04572366376867    2.30123513553180
C         9.91067627635405   18.49589776116661    4.23890894848434
H         8.85733024472394   18.42927665447657    3.93986115812907
C        11.94225146770632   19.92592528710164    3.98667488391869
C        10.54648562262532   19.78695722174069    4.17287206686085
C        12.51861207551098   21.23185483752673    3.91379714828347
C         9.73232868404674   20.94018234728210    4.31509346874872
C        10.33301396819495   22.23622388942705    4.24630472235049
C        12.81059446142698   18.81784478399399    3.83422462377981
H        12.38709545922016   17.82774933192574    3.86492052443621
C         8.33953658655123   20.88564155721459    4.58148437231805
H         7.83746558894406   19.93466167253305    4.66750704136011
C        11.70434272541879   22.35237426108867    4.04028785141739
H        12.14884554369970   23.33706882480638    3.99091604022909
C        14.15094055206464   18.98358367516943    3.64791776786969
H        14.79179367323107   18.12085748516635    3.53435002696610
C         9.40703168129692   16.10413533970126    8.35421253954883
H         8.89433187153094   15.16546517983153    8.52147848670887
C        10.31016543438210   16.47929140308295    1.59321106045268
H         9.50198544712077   17.16280988350995    1.36487006180843
C         7.95295485492743   15.33667156757281   -0.22271497849786
H         8.99083581751229   15.06157405283074   -0.34878113702665
C         8.83609755768466   12.41698665064353    1.24590502039762
H         9.46638322221995   12.98926062287930    0.58026038158113
C         6.05403810171218   15.75148916716220    1.18922199444911
H         5.62733648984748   15.79707995501400    2.18432400906690
C         6.51881131867289   19.22470269902420    7.66855799247903
H         7.30267039956626   19.12989084953005    8.40782054979490
C        11.62432863319299   16.84072039519758    1.36792802622387
H        11.85373392207219   17.81151654486539    0.95304036916747
C         5.30300592304509   18.36947113927773    5.78045053717335
H         5.16449145129184   17.59085813962251    5.03825477103403
C         7.37610220501655   12.29575314618870    3.14951277682088
H         6.87239795537198   12.78525765390499    3.97331381643883
C         9.48516415773043   18.27928081221796    7.32827443300739
H         9.03596214428821   19.03717206762016    6.70145296734624
C        11.04375793999887   14.36075746183053    2.47203391299748
H        10.81439177180886   13.40170608228191    2.91911039088824
C         4.49598082477824   19.49211174508605    5.78868603022532
H         3.70710443406047   19.59395293435300    5.05793405014215
C         5.82904566881977   16.24496873213038    9.01091144325712
H         5.90358065985308   17.31022083693616    9.17443809046686
C         7.19667811610654   15.67551108136748   -1.32971229918258
H         7.64555271687677   15.65113469185241   -2.31242820601790
C         4.70339423173938   20.48676272992261    6.73081318052020
H         4.07831398234246   21.36805720505545    6.73601975460261
C         5.29959148082709   16.08445607170598    0.07892404761461
H         4.26678933617544   16.37747972551864    0.19767348126751
C         7.23319369513785   10.93375849093433    2.95511830868978
H         6.60905558930648   10.35783491960320    3.62247248154931
C        10.65101292045611   16.32916646347011    8.91541079638998
H        11.10656213148574   15.56742039712285    9.53219861762521
C         7.89180591996618   10.31202222579095    1.90831668905594
H         7.78387022620736    9.24810727038028    1.75549898028634
C         5.71381044913589   20.35019038744542    7.66811634415062
H         5.87694860383864   21.12369126406490    8.40485132263369
C        11.31590148506906   17.52200043789465    8.67984042761387
H        12.29209336797615   17.69103675147618    9.11086494016896
C        12.64916053860074   15.96452290512474    1.69156250608274
H        13.67594574980985   16.25137829391662    1.51792568051379
C        12.35826620194214   14.73125191363097    2.25032136352323
H        13.15760112068330   14.05575084034132    2.51957507427475
C        10.72997789585737   18.49687284875639    7.88831228844879
H        11.24767560710010   19.42510031844821    7.69412883474559
C         7.59735623939863   22.01809180404556    4.74523618596093
H         6.54016265711071   21.93815594507898    4.95200175645573
C        14.71701539578381   20.27173480550607    3.59536770209377
H        15.78161329388085   20.38061776111842    3.44741878655612
C        13.91724892323903   21.36539086153721    3.71886981840806
H        14.33108972484061   22.36271214366819    3.66873913826194
C         8.19254664150723   23.28978832749231    4.65381383659320
H         7.58497320136860   24.17350906409781    4.78241771445127
C         8.69286059217887   11.05579405470116    1.05606440684601
H         9.20826203277932   10.57172535631871    0.23882402539583
C         6.27795018660195   14.30026380305933    7.67497888844232
H         6.72143182380879   13.84680583475974    6.79740996476331
C         5.05935327666047   14.08686922033648    9.72800913070810
H         4.53974553434402   13.47313759465351   10.44920868855556
C         5.86960223093659   16.04500345450834   -1.18279263735532
H         5.28327304350043   16.30693827370915   -2.05135757089182
C         5.61714222341651   13.51134979886233    8.59934603256685
H         5.53761168313420   12.44658079904343    8.43616351187146
C         5.16816228468845   15.45335889072600    9.93134102606463
H         4.73427622586247   15.90516183315713   10.81180512617502
C         9.52701911599059   23.39176731249601    4.40947417125975
H        10.00606467535883   24.35844080602510    4.34306345462313
C        10.23188012699952   15.28606292884592    5.36452867524567
N        11.53613667750063   15.22015648787186    5.71826501132163
H        11.82940283520392   14.47853834838695    6.32969929331441
H        12.03761301402024   16.09528238643986    5.73909656842179
H         7.21027174989678   17.01926179870003    3.85989901792088

