58
CSD_code = ZEYDEP | q = 0 | S = 0 | Stoichiometry = C26H28ClNORu | MND = 9
Ru        0.98463683134513   -0.98795470556024    4.45794552829844
Cl        3.13954678085460   -0.09316922106828    4.68403526055966
O         1.65214836364704   -1.71749265039565    2.64709491623316
N         0.58133588588100    0.77743681233352    3.54739712689904
C         2.39940206232974   -1.79076862851035    0.44237725623935
C         1.59083766421890    0.32562623155059    1.42683581495082
H         1.83051427424404    0.75527800259755    0.46790861264795
C         1.95479442424938   -3.09334982803797    0.23271205334594
H         1.22806259521041   -3.51144512135805    0.91349765428131
C         1.86677941628237   -1.02677715018803    1.60386834259498
C        -1.61951570732911   -3.05554824468448    3.51737717097154
H        -1.06649702495975   -3.86834677234600    3.03288839078807
C        -1.12221865325666   -1.34086063531834    5.33028121093879
H        -2.07550336558194   -0.86343837553232    5.13362874440907
C        -0.74664126931193   -2.48471987311006    4.60978817127215
C         0.46823351453483   -3.13156640489218    4.98047676443975
H         0.74881165042575   -4.05146886232932    4.47715669689873
C        -0.32003663393052   -0.84071453852669    6.38787467191897
H        -0.67530015221402    0.00022998717382    6.97328902156808
C         1.27388166530781   -2.63634061203725    6.00660487995856
H         2.17231755602603   -3.16746206560856    6.30060710196267
C        -1.92796207881394   -1.99563904617636    2.45690709233954
H        -1.00352426948808   -1.52210142286054    2.12417951591300
H        -2.58771695558004   -1.22777141206093    2.85457570854051
H        -2.41447307295904   -2.45152332004062    1.59761524682821
C         0.90205947053278   -1.45278115282801    6.70974004972113
C         1.78243615783701   -0.92473628593477    7.79942616821236
H         1.28746014681015   -0.12927936964229    8.35183868623634
H         2.69470036413422   -0.52230538615252    7.35229448866650
H         2.06527342058207   -1.72091824124257    8.48682619853094
C        -2.90729838815535   -3.63582665664571    4.10927001012328
H        -3.51066771242194   -4.08313871664561    3.32294639048729
H        -3.49432789576684   -2.85804807066604    4.59286460505653
H        -2.67795211327036   -4.40210200188491    4.84707371060875
C         3.35022460261851   -1.25116924892975   -0.41808941489264
H         3.73312220093245   -0.25806507910089   -0.24019623908924
C         0.96104444086195    1.16821936590591    2.35609960075722
C         3.83100393437297   -1.99884091840641   -1.47749277076600
H         4.57478696739925   -1.57640544909024   -2.13731187944630
C         0.68654272937279    2.58797727023125    1.93191936693085
H         0.90817616440358    3.27172518597141    2.74915925205819
H        -0.36351661692290    2.70594329910931    1.66745092701159
H         1.29181019174889    2.85075263931723    1.07005575026573
C        -0.07803784923116    1.64497427208730    4.43182853622314
C         2.43003458110821   -3.83357237564432   -0.83298460154408
H         2.07213993912474   -4.84045793246252   -0.99282974075909
C         3.36799893274414   -3.28651243013199   -1.69279957433184
H         3.74345180632082   -3.86502065745385   -2.52414793859748
C        -1.43015943175189    1.94491972965191    4.26751045480786
H        -1.96532800591131    1.53228934710340    3.42346752024710
C         0.61965765325575    2.18235003757457    5.51547584918140
H         1.67000693296903    1.94598690666716    5.62327118630299
C        -2.07652829881090    2.75233578699419    5.18568342057987
H        -3.12606148441081    2.97512865793405    5.05736499005619
C        -1.38356361658582    3.27725946463079    6.26392168858750
H        -1.89236907408669    3.90865897213373    6.97712301136352
C        -0.03572775827453    2.99286842338682    6.42291409691944
H         0.50809410732471    3.40787847114197    7.25880324567662

