57
CSD_code = ZEYDUF | q = 0 | S = 0 | Stoichiometry = C27H26ClNORu | MND = 9
Ru        5.53720043968903    7.20173755743836    3.19928159103596
Cl        6.42990883392915    5.18122942593910    3.92826811486420
O         4.27154885939427    6.07035969951922    2.03655005945963
N         6.65911920925331    7.02091034149537    1.54088892611224
C         6.57008658901921    7.77946553968334    6.62134466591925
H         7.45344344752503    8.40092612448633    6.74863608346144
H         6.88750216239630    6.74474250300164    6.48032164412273
H         5.96232444394914    7.82477857206414    7.52405392074772
C         5.77720277763512    8.21132969108531    5.42787016710800
C         4.48790370505230    7.64605983239508    5.19122526215353
H         4.08318228635553    6.94339484173734    5.91182841986033
C         3.68656779919805    8.09957292005418    4.13719672469237
H         2.66824790560517    7.73941837971597    4.05519164629571
C         4.17730150048175    9.03805822619406    3.19507980709231
C         5.50170801689409    9.49480192016045    3.37234299562362
H         5.89174099040557   10.25548111425195    2.70157365305073
C         6.25088283537590    9.16974095747273    4.53376899612333
H         7.19252583388256    9.67112471878152    4.71772711340181
C         3.30776141372071    9.64676200716549    2.11982952076231
H         3.96424292181845    9.96547577101751    1.30050375902470
C         2.61994126693802   10.89058234390424    2.69734180480874
H         1.98727483839282   10.61581870408827    3.53908027076852
H         1.99967649080721   11.35985585982542    1.93772706016052
H         3.35535019740442   11.61504478618356    3.04179276691229
C         2.27508291413769    8.67139044601895    1.55613310074464
H         1.46139936796603    8.51305535290292    2.26023175652922
H         2.73943247907335    7.71181124196249    1.33836011965578
H         1.85167895854654    9.07016095145469    0.63738722827052
C         4.81104751849430    5.69378666690345    0.92815320382158
C         4.14987795934378    4.83666548909401    0.02488538728310
H         3.17186088551751    4.46829901710376    0.29260710168141
C         4.75935640136446    4.47529072450859   -1.15066931160477
H         4.24953096664735    3.80921906872241   -1.83121681085576
C         6.03432292558092    4.94012658458580   -1.47340792548429
H         6.50531801367762    4.62355850936049   -2.39108147126440
C         6.70109614310817    5.78745184960886   -0.61758863485277
H         7.70036367214200    6.11452508191135   -0.86360448246614
C         6.09882367974894    6.18594650367714    0.57826915769470
C         7.71874299798595    7.72418712823930    1.31061239352584
H         8.12882553908761    7.78153582469546    0.30547468015597
C         8.46962133142305    8.37837514761938    2.37043416886596
C         8.80373476246709    7.65268082479193    3.49951652085462
H         8.47631311826831    6.62531077298427    3.59260471890814
C         9.60944343137564    8.21376398589299    4.49648665889528
H         9.87068240894492    7.61499856929742    5.35620710028631
C        10.07101968004266    9.49694793635266    4.37862486828130
H        10.69643247373364    9.93219351234684    5.14524999229141
C         9.74123150513208   10.27884539004961    3.25089618785045
C        10.18634517888166   11.61106895759399    3.11861811681380
H        10.80719218314182   12.02768994467424    3.89906237325446
C         9.83789445132724   12.36307201152486    2.03207169362668
H        10.18221442867120   13.38250945949617    1.93925508152848
C         9.02261085257907   11.81636157858999    1.03049664084661
H         8.74426594993045   12.42449759272990    0.18221785617882
C         8.57918961539128   10.52574458676463    1.12685789690288
H         7.94047148501938   10.11430698464020    0.35872812341564
C         8.93313195612471    9.71775046624266    2.22660153480575

