50
CSD_code = ZEYFEO | q = 0 | S = 0 | Stoichiometry = C27H20Cl2Zr | MND = 12
Zr        1.90494919864738    1.83825063340201    1.47827285256425
Cl        1.58752812822362   -0.43753125116215    1.75503487459043
Cl       -0.34184744006400    2.36771436870020    1.73765824284565
C         3.74555292967174    3.23124988688431    2.21127285105643
C         2.59716268529617    3.86944667782184    2.74925690968116
H         2.26997705525184    4.87552096118864    2.50675665083406
C         2.00581937106446    3.05077295724154    3.73037431730195
H         1.19030026969314    3.33205181690757    4.38504588794575
C         2.77059955306108    1.85248842393344    3.81801303159764
C         2.64318714494571    0.70490484625638    4.62688225535807
H         1.86173291052829    0.65616860251965    5.37436913106717
C         3.52093593811060   -0.33274700489952    4.44832920681419
H         3.43560571768280   -1.22118868617143    5.05501570824398
C         4.53675105878874   -0.26981181541175    3.47640776377030
H         5.19519779060369   -1.11756587583605    3.36020505438817
C         4.71185925189805    0.83440815264462    2.68039721568359
H         5.53025064436712    0.87063571580481    1.97275956048522
C         3.85069210587782    1.94584442659012    2.84584072760751
C         4.37105906535492    3.61354859996829    0.87130650801819
C         3.41705562132497    2.88873778025669   -0.07543659879552
C         2.11417169089267    3.35831979384161   -0.39867610960121
H         1.77312875308675    4.38736267482866   -0.34631203905389
C         1.38441359924956    2.27999794426128   -0.95812038347161
H         0.40172957872594    2.35047080866967   -1.40924680515498
C         2.20922351676536    1.13817516577570   -0.94370830061232
H         1.97159952663294    0.17487621489023   -1.37909591285680
C         3.45463434904420    1.49898571177137   -0.37107633493422
H         4.32171878884109    0.85109502892994   -0.30761706981441
C         4.40041911071440    5.11726512286888    0.63848805864115
C         4.27782556953195    5.62969861990041   -0.64716416191164
H         4.11373485843019    4.95959588620753   -1.47771278652118
C         4.36479344117517    6.99204226028902   -0.87116629076497
H         4.26091569967894    7.37673856260541   -1.87489487772110
C         4.58808359962547    7.85900085621364    0.18447657605054
H         4.65422629576310    8.92236341067764    0.00958699870707
C         4.73654995539683    7.35324728388123    1.46436615724119
H         4.92402953528733    8.02126525993064    2.29197062702454
C         4.65007977579057    5.99105284081503    1.68954275976043
H         4.77833126626754    5.60510119004155    2.68973834856732
C         5.82163416768011    3.18562878131075    0.73103251337943
C         6.34105880762826    2.84200761285456   -0.51049956410783
H         5.69681947592596    2.83019591273454   -1.37684493708735
C         7.67900287173588    2.51463394819650   -0.64332686983546
H         8.06912482330182    2.24141408752667   -1.61259062331406
C         8.51590258019430    2.54095365776910    0.45883225695719
H         9.55951181617787    2.28470182454318    0.35413243909028
C         8.00917173918350    2.90490302949993    1.69495705499871
H         8.65727344681764    2.93619056225592    2.55809435555757
C         6.67199897197877    3.23088203287621    1.82968756759221
H         6.28192338814662    3.51133469739378    2.79668520213720

