78
CSD_code = ZEYGUH | q = 0 | S = 0 | Stoichiometry = C37H29MoN7O2P2 | MND = 8
Mo        1.54425703361433    2.24679599765773    2.07201180658043
P         2.76198951757161    1.80983182159497    4.10733561390625
P         3.02902753030888    4.12261880350897    2.20121022131929
N         1.07837423390117    3.74271754577551    4.51163281575958
N         0.44183846976866    3.27687719781508    3.47082738677913
N        -0.84754212948232    3.42904444579417    3.60872838198891
N        -1.09721281800446    3.98504681704914    4.75280294693834
N         2.80595962783226    5.21703316223700    7.08150275204866
N        -0.06910721207495    5.87135016946426    9.87013859569274
N        -3.10810407156382    4.35189184034200    7.25264417478762
C         0.85798635775182    0.41819987165507    2.35583669525215
C         2.64657465804856    1.19660941348518    0.88298244434567
C        -0.41609206413372    1.00701031072949    1.51994975546206
H        -0.49780182217441    0.25615795361595    0.72263760013965
H        -1.26917626480192    0.93018272348266    2.20276181893278
C        -0.30894675798751    2.38413602641499    0.95279121920963
H        -1.06722756759516    3.11577016262012    1.22295094633532
C         0.60466675629511    2.58976864455421   -0.06987624040415
H         0.64255197023551    3.56551987700043   -0.54435726991038
H         0.87870094595982    1.77620650608908   -0.73393143743896
C         0.09965423196615    4.18276171857549    5.32393892164224
C         0.33841851310122    4.72801948552909    6.62476363972592
C         1.69159665768625    5.00809397203509    6.90824016495633
C        -0.63827749717080    4.93320689735203    7.56004210415959
C        -0.32442677083872    5.45356131893724    8.83343707494674
C        -1.99545339186628    4.61110120416011    7.34486317260613
C         4.05133367131214    3.06775717620426    4.53642798280082
H         3.58897558356264    3.75524001529292    5.25130868955399
H         4.90836488785734    2.57331051676840    5.00695466938902
C         4.47915532600071    3.82711652512542    3.28636396441014
H         5.17798726662742    3.23465847967400    2.68352238966532
H         4.97226530634311    4.77667035824298    3.52576895425215
C         3.74063495105306    0.28111278573026    3.98356286386892
C         4.76865729434721    0.22938259816686    3.04575691127535
H         4.99002826411879    1.10521385211167    2.44912828813881
C         5.49215831766769   -0.93215399196104    2.86194445178868
H         6.28767052559770   -0.96262162883122    2.13183501657057
C         5.18610836102534   -2.06188371208221    3.60471154654895
H         5.74391562601850   -2.97416986006462    3.45408778017155
C         4.15888642641750   -2.02145207920931    4.53095912930596
H         3.91224096082780   -2.90303743409284    5.10401217622314
C         3.43690384839915   -0.85624855375639    4.72282736427221
H         2.63159869940386   -0.83417777038287    5.44312478959616
C         1.87682687990619    1.53695426961683    5.67003758250135
C         0.56570506252123    1.06861426014305    5.64259334292865
H         0.10571900931773    0.81318856007305    4.69653138398444
C        -0.16242560562374    0.95166317226848    6.81210855864317
H        -1.18671342130604    0.61164016254408    6.77591072571232
C         0.41692057917360    1.29026503079298    8.02476482489214
H        -0.15783181237766    1.21990457949937    8.93628292713138
C         1.73438238321279    1.71583649420758    8.06416274307419
H         2.19366229554644    1.96815724864680    9.00860302988527
C         2.46561780538311    1.83692563329850    6.89498234783101
H         3.49044294876918    2.17237418387869    6.94155938655483
C         2.19984521899909    5.60608166865168    2.84125547104286
C         1.00974810501894    5.93456819746631    2.19109252458783
H         0.70277323380604    5.35042139768207    1.32820120130077
C         0.22543486838999    6.97514721387009    2.64788989965401
H        -0.70299842682991    7.21320911763070    2.15022307414609
C         0.62406444882018    7.69890535881127    3.76223631607745
H         0.00280235509969    8.49956690626557    4.13496391178533
C         1.81374115379624    7.38991347418404    4.39926634129139
H         2.12531300774742    7.95132536153509    5.26792891690458
C         2.60430541242295    6.34712872697956    3.94437835843127
H         3.51484804290333    6.10810166469323    4.47218654419029
C         3.85301851766344    4.76860457173104    0.71357908374645
C         4.45901054087896    3.84674085648931   -0.13501435642908
H         4.39980869195716    2.79340100737875    0.10198763402675
C         5.12016255178572    4.27287689165602   -1.27094690783000
H         5.58775715084662    3.55219488176721   -1.92508974996106
C         5.17652773066260    5.62501074199131   -1.57132263821419
H         5.68761893126577    5.95962025855132   -2.46155390102158
C         4.57498385032487    6.54658030791259   -0.73089824038048
H         4.61896028481471    7.60028129839484   -0.96385015255819
C         3.91543966922208    6.12462978586794    0.41051292757286
H         3.44834624404931    6.84829183298989    1.06371787855612
O         0.93605799842139   -0.69966208826560    2.71983246534391
O         3.21081084047319    0.47910580638367    0.18642427101301

