102
CSD_code = ZEYHOD | q = 0 | S = 0 | Stoichiometry = C44H52N3NiOP | MND = 4
Ni        4.21035623980452    4.13815681582167    8.30520344822918
P         4.91867818132093    6.15417960584826    8.16331650750935
O         5.08527761905199    4.01338769629153   10.00528088735807
N         3.31615830113570    2.43380661088474    8.63974970867044
N         4.26494891907302    1.02529604087687    7.05232758348249
N         2.27184874938992    0.41091723996383    7.88825517647884
C         2.55473287206311    2.63087820310327    9.85946164513392
H         1.79873187150472    1.85387650770627   10.00154344197015
H         2.04531471514002    3.60924963466105    9.80490891314540
C         3.48006554835133    2.60442007248830   11.06180623571491
C         3.08991116928153    1.86843141796165   12.16759453401774
H         2.15311970308213    1.33397496579469   12.10936669608006
C         3.86174551418733    1.81923243772486   13.31356706745177
C         5.05236774578529    2.54326327215757   13.30399562991080
H         5.66176599740310    2.51726540212814   14.19168819157447
C         5.49044839496096    3.28559065931199   12.22684016235850
C         4.69417286688279    3.32548463998663   11.04660549448903
C         6.79882380883502    4.06664628002373   12.27913855726031
C         7.72451427339346    3.57563899060109   11.15867328188626
H         7.97510673892242    2.52730882192466   11.31272054771428
H         8.64481803979718    4.15775291232634   11.14169499362096
H         7.23186023634731    3.68163315372759   10.19791042421987
C         6.49079737806270    5.55717185426087   12.08697451840529
H         5.99122229286514    5.71274057830749   11.13621765925928
H         7.40977868880085    6.14141034165227   12.09349364938701
H         5.84218339936785    5.91455129149298   12.88531256897003
C         7.54863568437810    3.91185552516652   13.60657112785742
H         6.95915675522673    4.28640134713659   14.44092235604197
H         8.47041134803592    4.49025419395131   13.56223865851697
H         7.81399965901359    2.87323526959447   13.79298388348196
C         3.47161999088083    1.03146076566178   14.55544579726768
C         4.56103512250810   -0.00470622612820   14.86635232901442
H         4.29202180687256   -0.58540730545863   15.74736685467972
H         5.51779036673777    0.47452927934459   15.05364501674322
H         4.68107150135169   -0.68555433867560   14.02587601407209
C         3.32531001679449    1.99665035348155   15.74061153135439
H         2.56454514991573    2.74370306504873   15.52302819408362
H         4.25945349591559    2.51326293956434   15.94271072609627
H         3.03276209821337    1.45463496676874   16.63841284822365
C         2.14530962371233    0.28464226062610   14.38594109134824
H         1.32781320082471    0.97837134114699   14.20261177707524
H         1.91923017532626   -0.26998679803069   15.29525848654586
H         2.20066132639443   -0.42489355853923   13.56327775352655
C         3.26617478911896    1.36871067223857    7.92515159047295
C         5.60191825929405    1.54092861635773    7.17291230027805
H         6.04813447487060    1.62236536843114    6.18151481716338
H         6.22746411048342    0.89461720993419    7.80009138296312
H         5.54716624439885    2.53961780978259    7.63678895190646
C         4.09185633499071   -0.33518727372310    6.59856804210886
H         4.77892607744089   -1.00911606274927    7.13058880296794
H         4.29341664471734   -0.41262213248149    5.52641645296050
C         2.63237238860405   -0.63396718607751    6.94587168855978
H         1.99573555382472   -0.58030213045049    6.05303457119944
H         2.50323538547329   -1.61937165631241    7.40274872869762
C         0.87295983806787    0.77332636688310    7.95853566473669
H         0.35670170521425    0.43937739453051    7.05466875968969
H         0.76449968348662    1.85429178570455    8.02404603426204
H         0.39275694338948    0.30340387928259    8.82082309688105
C         3.37993335748649    4.26080458064188    6.62967201451962
C         4.07344409787865    4.16063927842325    5.42243590643480
H         5.15341908769981    4.06148881100895    5.41812208965610
C         3.41138960258722    4.20737136525817    4.20710777310458
H         3.97442369740611    4.12885720171967    3.28668425969486
C         2.03806638429012    4.36747491104388    4.16512303698284
H         1.52188426320650    4.40973622175496    3.21627999810372
C         1.33251692899979    4.48544632489162    5.34889876618183
H         0.25899604219170    4.62156936453237    5.32820292488166
C         1.99665071907199    4.43651564114933    6.56352433627903
H         1.41594530206933    4.54657283049394    7.47496906777109
C         4.75460233799525    7.06103544265992    6.58653478986151
C         5.81777033783552    7.27646478222734    5.72017466812378
H         6.81560243499769    6.97290746018035    6.00454744499270
C         5.60308903418448    7.88121440324819    4.49333702482745
H         6.43605337848074    8.04777235247006    3.82531795819812
C         4.32794491530484    8.26669128498170    4.11904902021354
H         4.16318929466117    8.73185825063160    3.15824436844149
C         3.26177310175866    8.05194189200340    4.97859649886274
H         2.26437620925004    8.34812534210186    4.68846089583201
C         3.47382157913652    7.45048370654040    6.20241709450401
H         2.64470895150081    7.27050357733178    6.87348300757491
C         6.70117084487582    6.31895818892989    8.50368412294249
C         7.52123313657621    5.32320310896930    7.98170040576712
H         7.06620049842866    4.50704587969554    7.43231504391256
C         8.88870600483736    5.36746017452269    8.17470173634846
H         9.51909612725852    4.58886813629596    7.77012769885072
C         9.44730935845956    6.40709654792269    8.90058224115695
H        10.51509691260035    6.44181975360837    9.06099438770895
C         8.63474008209627    7.39568775212825    9.42961272438769
H         9.06944799547569    8.20112195756701   10.00407975602504
C         7.26502955015313    7.35636429978338    9.23370099664169
H         6.63776122561828    8.12362029041788    9.66367727573663
C         4.12875795034346    7.32493543699067    9.31190348076225
C         3.43279991578659    6.81987372101433   10.40358581131801
H         3.37249613371422    5.74837636763163   10.54012519021432
C         2.83525057745848    7.67750706181044   11.30952011282619
H         2.29929596106744    7.27731947414987   12.15776367802782
C         2.92486243255146    9.04708400786712   11.12608443066749
H         2.45945516840413    9.71996561146137   11.83149122819187
C         3.60837099879368    9.55697983313782   10.03296272155317
H         3.67414182259326   10.62579571957872    9.88759780166497
C         4.20806725105530    8.70280700111270    9.12586169508224
H         4.73101397346195    9.10184346103124    8.26708165999688

