43
CSD_code = ZEYHIW | q = 0 | S = 0 | Stoichiometry = C14H17MoN7O4 | MND = 8
Mo        7.91830352864216    2.78860432584226   14.05797235082554
N        10.43515913325936    4.34640205723351   15.01989579888841
N         9.33358130483385    3.65997089239420   15.15305479934305
N         9.07703589712579    3.39672790967257   16.40701330271733
N        10.03054243178875    3.89233997120463   17.14243074475350
C        10.87958828405843    4.48151096752707   16.28589164922500
C        12.90920903138502    5.74374596365985   15.69772304455575
H        12.62509039018381    5.66246596532016   14.66017256996994
C        12.08942864479040    5.16719460801286   16.67110888606157
C        12.44237536941536    5.24743994242107   18.02064481418212
H        11.79719505202813    4.79008115671685   18.75405158592384
C         6.69904501639185    2.62376408351519   12.50386255215854
C         9.22078678411656    1.74512654434174   13.09009056623352
O         6.36400360413089    3.05059075603365   11.43589030024563
O         9.94657911233859    1.07683255961308   12.50829012222497
C        14.40419689336886    6.47220954326605   17.41502068951916
C        14.06460736589639    6.39550349516157   16.06674401907725
H        14.71613590302375    6.84757009418098   15.33462503822703
C        13.59714647610122    5.89774677684225   18.39396226606297
H        13.89305316012446    5.97288863026192   19.42912892108583
N        15.60570514026579    7.15457083724891   17.80128994409073
O        15.88205419125947    7.19258353691894   18.98394089137020
O        16.27839304640814    7.65971449883605   16.92407090110035
C         5.94302685986690    1.50248770760919   13.30260884374361
H         4.88864073285231    1.80152803795092   13.33060554626468
H         6.03889912474224    0.58798960362533   12.70431331473278
C         6.49800200968241    1.31607891520778   14.69324792759716
H         5.82199691098881    1.40723363477260   15.54675394621056
C         7.69439861633354    0.59996862161342   14.78529102401344
H         7.94613785856419   -0.13538433526261   14.02661745601110
H         8.06111037730308    0.35190257828020   15.77769616064774
N         8.36288620565752    4.75534995462387   13.02881049453759
H         9.36982608691874    4.90145001842137   12.93939320944511
H         7.96688635626699    4.70467717145135   12.08889994904247
N         6.50890820914549    4.24314024992403   15.09238107071505
H         5.58249979743381    3.89732285304617   15.33151727725964
H         6.95994978247542    4.49240923911623   15.97622335360618
C         7.75999119356570    5.86170251485595   13.76706232798649
H         8.39408418087621    6.09485386138453   14.63162784562275
H         7.67191245855186    6.76730837154525   13.15335665342751
C         6.37772791023450    5.43245409688016   14.25067181065050
H         5.76349640178800    5.17228348174752   13.38195151080261
H         5.89770316581366    6.26585830700120   14.78299451987217

