75
CSD_code = ZEYHET | q = 0 | S = 0 | Stoichiometry = C35H34N3NiOP | MND = 4
Ni        1.90944553440023    9.38263001807724    9.21492220047283
P         0.82706056722049   10.72052986424944    7.97065019473233
O         2.74655858077393    8.84341486222163    7.61010235929611
N         3.45789393377022    8.47693737396964   10.14580250661207
N         2.92922251055152    8.31734590490634   12.41185543145257
N         4.93094969860957    9.17859845751397   11.92264205635306
C         0.99994988485529    9.99451293227761   10.72660558173350
C         1.56468266406203   10.92604846478244   11.60365935222271
H         2.53704031736773   11.35744709267632   11.38694431149645
C         0.90520196253978   11.32686770101162   12.75397366091943
H         1.36891575534437   12.04599441226810   13.41732351021352
C        -0.34870094361842   10.82273839319209   13.05126433598464
H        -0.86503367737527   11.13911871885362   13.94677605991339
C        -0.94204627470477    9.92333089051921   12.18290720236186
H        -1.92969628398862    9.53747360641459   12.39659294915406
C        -0.28095117848365    9.52386143590876   11.03358368939295
H        -0.77711550892898    8.83040110681887   10.36152913981769
C         3.96302526935484    8.41275515074083    7.81748660996669
C         4.84229940469290    8.12721615877007    6.76620741065272
H         4.50892647150643    8.30941924111312    5.75477681253289
C         6.08873085751343    7.59259472480082    7.02445530713163
H         6.75281848234189    7.36740512414243    6.20145436617352
C         6.48884416618771    7.32265775766357    8.32411714478016
H         7.45485226180644    6.87827204231866    8.51537067445135
C         5.64850942348730    7.61782414819765    9.38511344206389
H         5.95021298733035    7.38722602680260   10.39828878981295
C         4.41081427645827    8.19942371117347    9.14740447762126
C         3.77026269457393    8.65026199241668   11.39794747857761
C         3.51961369872755    8.57228763350373   13.70236282459548
H         3.77924134751845    7.62680502624591   14.19845241287362
H         2.82057162526696    9.11903076944000   14.34266924127378
C         4.76412711027850    9.38998837508564   13.35121464074217
H         4.60963210572050   10.45677599660880   13.56073256673549
H         5.65660025117393    9.05718343719369   13.88797111074150
C         1.86217874577225    7.36656697381244   12.28845102017367
H         1.60244414823373    7.27801681052346   11.23317609992706
H         0.99100087628498    7.71691979359235   12.84270998014734
H         2.16656256382138    6.38638249274664   12.67375149171075
C         5.68641160924918   10.18745680420183   11.22039137885332
H         5.80504344789976    9.90100710080675   10.17807074082947
H         6.67219555501188   10.26634230798446   11.67880402861384
H         5.19166654787381   11.16594623284655   11.27006628126458
C         0.65020253489905   10.19151923698993    6.23830097817658
C         0.96720731567759   10.99029285326685    5.14893937981366
H         1.35120075663262   11.98927266266118    5.29828305309120
C         0.80558688872385   10.49755683658242    3.86489222227656
H         1.05640655357489   11.11978481440085    3.01759548495876
C         0.33431532905942    9.21161478294323    3.66272317582537
H         0.21594251528704    8.83162921190381    2.65830372454541
C         0.02915962095678    8.40678038988242    4.74932888895864
H        -0.32342404387037    7.39747197638648    4.59284052565117
C         0.18965511728646    8.89403558396348    6.03168936547319
H        -0.01548969084886    8.26909028024230    6.89182204846458
C         1.80080395388647   12.25647838273932    7.88923584816862
C         3.11877521910244   12.19820049943152    8.32769106953460
H         3.50090570831227   11.25225476655156    8.70297315048987
C         3.92335628149364   13.32168022510900    8.28304293975509
H         4.94823340870418   13.27050538266399    8.62198605404773
C         3.41037816925482   14.51493533812012    7.80061643059869
H         4.03464724294987   15.39573944977609    7.76344577394938
C         2.09473597205289   14.58201965502008    7.36923857990562
H         1.69669680095928   15.51515370356955    6.99727324826701
C         1.28806084694280   13.45892366665991    7.41276488140471
H         0.25853143176936   13.51374367112798    7.08615063281028
C        -0.83559586200096   11.37144777989804    8.35248287151682
C        -0.96959010058952   12.24107131464424    9.43223240001645
H        -0.08848755966096   12.54191939812334    9.98167677187893
C        -2.21441096149314   12.71174246315002    9.80018430665687
H        -2.30798718434661   13.38581857846640   10.63897427425485
C        -3.34207995357461   12.31391674852311    9.09891092680686
H        -4.31662612216874   12.67881017988102    9.38842784109364
C        -3.21678996592895   11.44536800546579    8.02849424789695
H        -4.09391005856614   11.13265337387253    7.48038349507426
C        -1.97001587018483   10.97151193083324    7.65734085578186
H        -1.87825776483670   10.29193978880463    6.82167367846585

