88
CSD_code = ZEYJOC | q = 0 | S = 0 | Stoichiometry = C32H44NO5P5W | MND = 6
W        -0.77489083475988    1.48284652118921   11.74721282110754
P         2.35441874605414   -0.92670135142372   11.39781196473301
P         4.87651486877204   -1.88660676618478   12.81239138043241
P         3.49638257122414   -0.80076849496235   14.11831383004755
P         0.40377154227491   -1.30480082524252   13.80212114985266
P         1.01128214988047    0.71875222224047   13.28365167293265
N         1.14579301195150    1.35812398125072   14.85188316745865
H         1.42707389157773    0.64527307509602   15.52496071694550
C        -1.91663913944493    2.02048459650740   13.30508584543277
O        -2.74901268896267    2.18043339870177   14.07121369475727
C        -2.27679361249528    1.99281844094922   10.56291278337993
O        -3.15682099021861    2.26934047579585    9.88511553642217
C        -1.72998744320996   -0.25339019152751   11.98512043593260
O        -2.45892651021480   -1.13107290557198   12.08322095903928
C         0.15865809844441    0.84346662300525   10.10006379163014
O         0.55278622578102    0.50173326869360    9.08214059389002
C        -0.02714719944437    3.31486297787563   11.45541675424688
O         0.29926764950676    4.38558758085001   11.21931545969874
C         4.01827503363309   -1.72392311846009   11.35531524340538
C         2.09933786847245   -2.05920210222535   14.00234704106651
C         1.51560052383136   -2.15740920161674   12.58533305922228
C         2.76344967318532    0.27756916147896   12.78306394901069
C         4.69084147228503   -2.13703027185650   10.05266623262099
C         3.70622908079632   -2.25399440320126    8.89022146496901
H         3.06761131006904   -1.37106240797298    8.83390131809904
H         3.08787882985166   -3.14279380241321    8.98979211631648
H         4.25079644041955   -2.33398527750170    7.95133235231634
C         5.44679818041956   -3.46118928809404   10.21516095785804
H         6.20237625125827   -3.37273164981471   10.99389847687334
H         5.94157350975581   -3.72048378260206    9.28160522016891
H         4.77587441785776   -4.27501156113862   10.48022469935205
C         5.72843461047254   -1.06202942848891    9.68673730539431
H         5.25195738297347   -0.09870795047085    9.51874406495793
H         6.24459583906260   -1.34721417588012    8.77225000674453
H         6.46962240913214   -0.96278209795658   10.47867133234875
C         2.29838191542153   -3.07734411894781   15.15511253420338
C         2.25574734494011   -2.28767683411096   16.47235274470667
H         3.00838328100790   -1.49981201209011   16.49582827955107
H         2.44622782182756   -2.95362537605323   17.31080662568244
H         1.27050649954430   -1.84395611237580   16.60630201166851
C         1.21936069312088   -4.15082848173391   15.28229207132513
H         0.22835120836109   -3.69931452976781   15.26838545785681
H         1.33745527507242   -4.66270472997597   16.23592738762241
H         1.30365863282196   -4.89870510818172   14.50074082630751
C         3.65978785185060   -3.76745751663625   15.04104340107224
H         4.47035557397267   -3.05417706416094   15.20097434228128
H         3.78778606220989   -4.22746202818612   14.06233668645435
H         3.74511026451940   -4.54439449171420   15.79842725008620
C         0.90045149153039   -3.34728375697665   11.80527546863296
C         1.93630357492692   -4.45603087612173   11.62458017722085
H         2.14662247556051   -4.95893549347421   12.56458136769507
H         2.86484316889434   -4.03576823994301   11.24775285575769
H         1.57503144783774   -5.19772265683117   10.91505011337589
C         0.46477098689648   -2.82339295344372   10.43009645142377
H         1.31108559305859   -2.51267936039382    9.82456118367917
H        -0.20551571423932   -1.97120619715950   10.55040388600821
H        -0.06726167386179   -3.60149386065926    9.88587835356831
C        -0.38560513515903   -3.92652993768824   12.40909394202149
H        -0.24196234793975   -4.39430685041219   13.37107910098092
H        -0.77606789728900   -4.68507166549078   11.73282899118778
H        -1.14357892390100   -3.15183886422344   12.50805114608731
C         3.61061231056175    1.51446857841049   12.38261671211279
C         5.11798038603512    1.28015454320984   12.52392900929936
H         5.36262562154727    0.93964659660669   13.53287202949158
H         5.64525565715661    2.21671329601177   12.35076606166910
H         5.48677762920919    0.55552869096566   11.80614367172045
C         3.27536906594314    2.70453255533531   13.28104401789443
H         2.24141754837570    3.00387807676865   13.13251381462079
H         3.91144355537330    3.55113626562202   13.02945108860577
H         3.42873311389020    2.45518469039048   14.32925838641579
C         3.29462968955491    1.89835836521308   10.93666397984594
H         2.23574706925216    2.13578608473552   10.83048037725344
H         3.53340506938864    1.07955174724415   10.25629976171216
H         3.87574587668191    2.77000728816571   10.64120977125813
C         0.20085124635713    2.25076138963745   15.39058806902483
C        -0.52669154380246    1.91602780319624   16.54052398425747
C        -1.41731658463883    2.84192773518766   17.06066684424999
H        -1.98506472578414    2.58255386643552   17.94274134335555
C        -1.60477757089112    4.07782042335626   16.46676391146382
H        -2.30949239948386    4.77830933407342   16.88760752350805
C        -0.88846196851529    4.40270697647700   15.33042726335348
H        -1.02316697959447    5.36114014874031   14.85244104379747
C         0.00604608654732    3.49342110787604   14.79631760592419
H         0.57960885616989    3.76167563343197   13.92382013449229
C        -0.37544803030096    0.56688809568570   17.17825780285799
H        -0.53705647827128   -0.22076126553999   16.43673609526061
H        -1.10741502856471    0.43917898476593   17.97112963829265
H         0.61812988661118    0.44182083572403   17.61255000313732

