48
CSD_code = ZEYLUM | q = 0 | S = 0 | Stoichiometry = C16H21Cl2N6PPdS | MND = 4
Pd        4.45885884124817    5.03911519446062    7.28501685762511
Cl       -0.01877628912238    1.32764964056186    7.12682350608116
Cl       -1.47061152100374    3.27260079763653    5.13631595112535
S         6.45426230122832    6.35643050503623    7.43740159385826
P         5.16772215687667    3.58430459977784    8.85983468197034
N         3.90030484312699    6.44173960614045    6.00207174577057
N         4.69058772279781    7.48256578684524    5.70491096689020
N         6.66184950636660    8.56960109956350    6.04874386606540
H         6.40907432048772    9.23375411355734    5.33892087130434
H         7.58976316661036    8.56775420706676    6.43194088691118
N         5.27166200448136    1.54322118517306   10.71644266156852
N         7.40839939553650    2.29406042301163    9.84026390485050
N         6.19206428191098    3.67429731523216   11.43053553749153
C         2.64058545585905    4.28776150652709    6.76585118253303
C         2.00085130434515    3.11879752325480    7.13518992593237
H         2.46552742835400    2.42104657696673    7.81765641498249
C         0.73847600063998    2.79850458750265    6.63642910760222
C         0.09752097096851    3.65697665260908    5.75517199097610
C         0.71728593582704    4.83211110287252    5.36191531986210
H         0.20469542830963    5.48397042110047    4.67234522437563
C         1.97906879605235    5.14980436281492    5.85470401259400
C         2.71682805982713    6.34650394163689    5.47488677032210
C         2.19967864189494    7.37086965980819    4.51088170058510
H         2.72292472643932    8.31044664059980    4.69652381260402
H         1.13150322660026    7.52252031653978    4.67153821618294
C         2.45511886558720    6.92749614981732    3.06785386563226
H         2.07191478042152    7.67196351309688    2.37432881166786
H         1.96900306373077    5.97615341747469    2.86498490354658
H         3.52280793707910    6.81176492462214    2.89845873747086
C         5.84986556106206    7.52546421603930    6.30318243186691
C         4.44109762634822    2.04671624712255    9.64280465438212
H         3.44840782955292    2.27906564143938   10.04522917585758
H         4.33780320385623    1.26304518065832    8.88353037870743
C         6.89605060925798    2.91371996414547    8.63566889783911
H         6.89462265568174    2.17489128770157    7.82519356702447
H         7.55440441474212    3.74199275643880    8.34531343581570
C         5.50092893095083    4.49359002241489   10.45640824297354
H         6.10927778288429    5.37914014537419   10.23132934292393
H         4.54696261556583    4.83031711230870   10.88152914272925
C         6.59497133661247    1.16221724545835   10.25014774759641
H         6.49326744340530    0.47028128371517    9.40991944020729
H         7.10902213050832    0.65295691095725   11.07149736285719
C         7.49120765032140    3.24177236615568   10.94014879088831
H         8.02123469262375    2.75709311037382   11.76620135611692
H         8.05830960622168    4.11713732492808   10.61412941193839
C         5.41098472047554    2.50533696811066   11.79739235811579
H         5.91554854102576    2.00645204264509   12.63090325491249
H         4.41748129641081    2.82542440270456   12.12232797888845

