90
CSD_code = ZEYMEV | q = 1 | S = 0 | Stoichiometry = C30H48ClN6O4Zn(1+) | MND = 4
Zn        3.14398117309136    5.20379555084077    2.40378061059299
O         2.65286140065954    6.71349564539545    0.75991343168987
Cl        1.35995683454326    6.14475616914457    0.96574370070714
O         1.45541205968118    4.76541449854775    0.55749243885892
O         1.14512657099705    6.12556326466188    2.38044153162447
O         0.36037383221976    6.81677647496336    0.28173037057007
N         4.48443218173785    4.56323032358271    1.10177068948818
N         2.31040064651835    3.65864832853873    3.30954541354828
N         3.98640248728077    6.46113237599049    3.64190822641552
N         4.10270878735054    4.15682490080872   -0.13191857641758
H         3.12201375561514    3.98870697375527   -0.31671962517271
N         1.31696552601925    2.97289958160924    2.69667924738874
H         1.08560417590179    3.19193940331507    1.73557742964380
N         4.94375535915525    6.11676699996426    4.54225640550140
H         5.24858596813114    5.16040862382956    4.62152060959979
C         5.77988547324139    4.83975426309884    0.97801894329094
C         6.21879545595899    4.61814085322430   -0.32470997301206
C         5.10603841041617    4.19188349695508   -1.03100476870108
C         6.86136908668580    5.33121870736067    1.86963925217798
H         6.91878272403338    4.78754262961903    2.81258188746327
H         6.71206792439628    6.39082159072126    2.08983277729850
C         8.12385075225654    5.10313970746345    1.00039581268977
H         8.84193812713069    5.91163690813274    1.11796973946253
H         8.60797199354723    4.17738356819851    1.31136375418135
C         7.66165643942371    4.96348879736028   -0.47082205995875
H         7.76995764240522    5.90846922090977   -1.00791041336787
H         8.23791000541723    4.20635813224191   -1.00035806494099
C         4.93219087618454    3.82318571719561   -2.47436080914497
C         5.27788929660277    5.05551482167423   -3.32120309700683
H         4.62539170540557    5.88751547976241   -3.06744337866557
H         5.15182911422904    4.82613648451805   -4.37571032900742
H         6.30791091865616    5.35890203817569   -3.15548856124694
C         5.89233943835992    2.67507175525598   -2.81124780751052
H         5.78106574743935    2.39564814497746   -3.85509071095656
H         5.68008755644503    1.80356644454299   -2.19630671186895
H         6.92329822374428    2.97366212736896   -2.64529152738860
C         3.49224867200230    3.39006398620197   -2.76104569286951
H         2.78823639329955    4.19036512349737   -2.54264212235145
H         3.22524850743482    2.50854504881728   -2.18164583921309
H         3.39445835186095    3.13948708329977   -3.81413871586722
C         2.26169732863184    3.26024764238965    4.57721385795019
C         1.24753625655719    2.32514563436955    4.77101931710489
C         0.63923490228396    2.16620661124355    3.53726692174797
C         3.02084291704010    3.54330518751964    5.82245336127790
H         3.16246234686054    4.60893113740207    5.99940225277417
H         3.99943189372040    3.05660157958511    5.79051913651143
C         2.11227827303712    2.89754463040395    6.89851843857373
H         1.48175165375508    3.67055056494832    7.33673765919336
H         2.69459452446640    2.44487999203335    7.69809264840141
C         1.21370543093617    1.85740579793353    6.18604049225479
H         1.63570592982442    0.85278435711848    6.26469190384933
H         0.21126237080101    1.83703951816986    6.61030014525742
C        -0.53869027001442    1.34033199499764    3.11369671374286
C        -0.34288240478486   -0.09747589545887    3.60910136494633
H         0.55765250512188   -0.53091381321481    3.18047629640034
H        -1.19193531380492   -0.70798822585556    3.31495661657694
H        -0.25994501147575   -0.12457755140768    4.69154127082355
C        -0.69211673426127    1.34511759126538    1.59062563283453
H        -1.52559312651355    0.70621818599968    1.31051724930279
H         0.20340496486705    0.96073356188068    1.10699326835678
H        -0.90042634231974    2.34490472339123    1.21567262822557
C        -1.79247136778477    1.94779300374982    3.75903831793596
H        -2.66985729727831    1.37614444852382    3.46954170455581
H        -1.92819409778495    2.97756489116378    3.43697473316597
H        -1.71363756539456    1.93211053670077    4.84254912180528
C         3.83097259285093    7.76881236658634    3.79406543571062
C         4.68314330658580    8.26240991912659    4.78705473142556
C         5.39330062644205    7.17629450682248    5.25826118640145
C         2.98473798103860    8.82235342373617    3.19076057140456
H         1.95526891441397    8.71254518345928    3.53883062234513
H         2.97491141635711    8.77556033317753    2.10282298557291
C         3.64534568081494   10.11446270548934    3.72892082270924
H         2.90434680031068   10.87296050872911    3.96883740463003
H         4.30565940282377   10.52217916521794    2.96397064559658
C         4.48468991542244    9.72795204819967    4.97278230889320
H         5.41815360706653   10.28742179198746    5.01823132705745
H         3.93094322544727    9.91951881800163    5.89461357709554
C         6.47584406203366    7.07370211828873    6.29246415389884
C         6.01558800159771    7.79925742871035    7.56190135764181
H         5.81533189123816    8.84607051308663    7.35562149796554
H         6.78959760814702    7.74136078027796    8.32195955151405
H         5.11057794296340    7.34395897895453    7.95681528371476
C         7.73244251472324    7.75506413556270    5.73206308130869
H         8.06944423591690    7.25684312321953    4.82570333654430
H         8.53252578002970    7.71426826778232    6.46581283149023
H         7.53210225667735    8.79703659151374    5.49994314473745
C         6.79055589826684    5.61234859365133    6.62416487565082
H         7.53760665443660    5.57725088727279    7.41249590657927
H         7.19856973166493    5.08742996184302    5.76240743217834
H         5.90432859098490    5.09157049917389    6.98105138682380

