97
CSD_code = ZEYMEX | q = 1 | S = 0 | Stoichiometry = C44H46N2O2P2Rh(1+) | MND = 6
Rh        2.98168408704681    1.28083742538027    5.28222807321819
P         3.54152439994875    0.76274131519822    3.08321597737655
P         2.49379949819214    1.74012657590902    7.51235265141937
O         5.17980516512394    1.51483942951669    5.71494529449396
O         3.25471712956296   -0.69871385949683    5.71787658688501
N         2.67341313486663    3.25644238727876    4.86682503118309
H         1.70249184808125    3.55467001538068    4.83808489335683
N         4.81791675150414    4.00139196239046    4.58163580638776
H         5.45262707099083    4.74590377025794    4.35582841568461
H         5.17239679680202    3.10445106944583    4.91606772649808
C         0.95625109539214    0.97566152195896    4.88591747811703
H         0.77918774455761    0.71268812225888    3.84246669300980
H         0.36218023476389    1.86139566776621    5.11471227107060
H         0.58645703114032    0.15525630010974    5.50047378365748
C         5.92929302997649    0.60286635663693    6.16138144800267
C         5.55582244309980   -0.72274744470041    6.38144602515176
H         6.31606018602912   -1.38856130436513    6.75707585935825
C         4.30033280348562   -1.27737623979653    6.13425336477480
C         7.35774046873198    0.97293166897303    6.47907828846486
H         7.55133697483098    2.00839043803294    6.21143059869416
H         8.03978879935061    0.32367094239591    5.93583843985527
H         7.53655423431784    0.84215237227050    7.54423332649567
C         4.15027814581728   -2.75872261960814    6.40091036650037
H         3.18018073404052   -3.10779616740033    6.05662328720889
H         4.23596302587256   -2.94633548864667    7.46944541039784
H         4.93593220832663   -3.31301112666718    5.89432192440184
C         3.50200144780978    4.20561367858722    4.57464839359251
C         3.01422056825722    5.57013352486913    4.18598812860704
H         2.03806175431261    5.77261494933528    4.61923398526122
H         2.92535998988088    5.61861905302022    3.10053279908244
H         3.70952337994758    6.34143503911456    4.50729464511499
C         3.42317195069012    2.09872011576616    1.84282586761605
C         2.24500155235495    2.84129565164572    1.82983922696762
H         1.47114591421141    2.61582179828704    2.54942502414829
C         2.05620446723528    3.84474584078909    0.89754792929318
H         1.13656766514274    4.41113704063005    0.89326927261667
C         3.04215933963965    4.11542346047279   -0.03812815232606
H         2.89837637157634    4.89907883242278   -0.76607599668246
C         4.20579228766511    3.36480855904096   -0.04692452137144
H         4.96658720529501    3.55671408395877   -0.78852337768153
C         4.39698228397086    2.35743855008824    0.88362260581674
H         5.29976622313297    1.76535817369180    0.84809509311822
C         5.26298983488342    0.17694265729437    2.97923406335826
C         5.53996774330944   -1.18627823247777    2.97320997864587
H         4.72834783260128   -1.89983564770449    2.95349043185300
C         6.85043183247795   -1.63027781740941    2.98545469491501
H         7.05711881248356   -2.68985428544539    2.97409664836498
C         7.89422223403521   -0.72089933247763    3.00921188073807
H         8.91588735223059   -1.06928294823951    3.01350303424132
C         7.62487031833945    0.63856422332780    3.03012714438584
H         8.43723097764195    1.35008736376399    3.05274351671548
C         6.31750137199774    1.08672566056951    3.02610510316966
H         6.10852387465091    2.14735642888922    3.05331216367720
C         2.65508864437199   -0.58249339987790    2.22191996447051
C         2.66796276031314   -0.65259383413463    0.83175091466761
H         3.16264358741103    0.11357702568924    0.25282217274978
C         2.04374693973342   -1.70425491626248    0.18581428346647
H         2.05629441407852   -1.75141472106064   -0.89258515761820
C         1.40608339221579   -2.69354945243029    0.91668762395567
H         0.91956150439425   -3.51165970712580    0.40804360817591
C         1.39473611601170   -2.63005191679791    2.30020528507527
H         0.89972766723014   -3.40065438792991    2.87217903668535
C         2.01543778839884   -1.57955199768072    2.95243663871074
H         2.01013073669008   -1.52509339824771    4.03050954347653
C         1.47739110819598    3.23844184463838    7.78149331078199
C         1.98072316582569    4.47861834755974    8.15424288485807
H         3.03107511653704    4.60236239812259    8.36769604293717
C         1.13069515161287    5.56394106612835    8.29101476541647
H         1.53261185151500    6.52044749385270    8.59041768858541
C        -0.22636436177155    5.42589414862892    8.05658484585604
H        -0.88422830222422    6.27442715042981    8.16460415888095
C        -0.73860143352419    4.18822863228120    7.69961429263089
H        -1.79867534689074    4.06828904973617    7.53426878891483
C         0.10606195179822    3.10333057324678    7.56347104261612
H        -0.29837117053076    2.13354098360420    7.30990185807302
C         1.57136391574753    0.57510235581489    8.56965957495799
C         1.29580505223497   -0.72624315717316    8.17053483586642
H         1.63127181203711   -1.07038491504494    7.20459281455780
C         0.59617733085125   -1.57717376371070    9.01051607694235
H         0.38243663981360   -2.58727639348529    8.69435104843954
C         0.16952920351501   -1.13494561840827   10.25057389988686
H        -0.37786785142293   -1.79790975161551   10.90294893810518
C         0.44671161784029    0.16226560193728   10.65599697144491
H         0.11792171700940    0.50855323469859   11.62414081883173
C         1.14348107093454    1.01515046862756    9.82252334271240
H         1.36090813108298    2.02603610500507   10.13953479521268
C         4.01520431641418    2.02253651210679    8.47425362237943
C         4.87585205547504    3.04789774729049    8.08443471871902
H         4.62223685738594    3.66090912981881    7.23090423058026
C         6.05683520946644    3.26711018494487    8.76787549134330
H         6.71198733996171    4.07233281114639    8.46896678625894
C         6.40579556496957    2.44971783604133    9.83141961832500
H         7.32863949937559    2.62059655938753   10.36463177756083
C         5.57478972244416    1.40481843230883   10.19789069549040
H         5.85156285684077    0.75431166444951   11.01385239382477
C         4.38651189290331    1.18690601222702    9.52204262274595
H         3.74836513635603    0.36524844898902    9.81323272756929

