62
CSD_code = ZEYSOO | q = 0 | S = 0 | Stoichiometry = C19H36MoN4O2 | MND = 6
Mo        2.16653326106484    3.35491837249197    5.91794922570757
C         1.43986802496145    2.28192927499939    9.02830599857683
C         0.64344870486687    3.08708401742181   10.01794446282396
C         1.68235343287906    0.90359302006668    8.96246169861281
H         1.38399031175399    0.15748450402603    9.67028051966744
C         2.36352817462689    0.70736837066137    7.76617448088963
C         5.12336143565271    4.57993016499521    7.43049755887556
C         3.13013704653411    5.68004722578911    6.55528455289544
C         1.00226055268768    6.27873396521351    5.46776824576781
C         3.63706065213972    7.10090617274367    6.60348487657375
H         4.62355083262422    7.15036690775839    7.05344030445932
H         2.95606751271969    7.71328817890702    7.19281791909784
H         3.68878189905411    7.51185594710923    5.59642805169301
C         5.73734479676601    3.23658364764639    7.03964565424887
H         5.22226383815983    2.43235956124038    7.56185487369583
H         6.79422275727284    3.20782740724429    7.29520793048821
H         5.62237782750351    3.08462916168160    5.96767253498038
C         2.76726378117533   -0.54018451374573    7.03054882247338
C         1.30779953921317    4.45389156582969   10.21686553817655
H         2.28566875142924    4.33769616653694   10.67967768822835
H         0.69386819647671    5.08006117631443   10.86124387826392
H         1.43635276449492    4.95186600122170    9.25653673141404
C         2.72342536545109   -1.76165743237780    7.95031606941246
H         3.39585771891856   -1.62960659965084    8.79504107568911
H         3.02791535299062   -2.65039965538680    7.40244782582586
H         1.71724920778311   -1.92215758198670    8.32885164134352
C        -0.75356706484730    3.28114162373610    9.40977498800650
H        -0.66774943419530    3.72862900956246    8.42040673009435
H        -1.35930209673239    3.92608454553662   10.04316847814455
H        -1.25747178460791    2.32267409890373    9.30620644798068
C         1.76424743665966   -0.70595940936143    5.87703364613211
H         0.76168171790289   -0.87179872974429    6.26691990822188
H         2.04061209601547   -1.55292254945792    5.25284622704491
H         1.74900569166179    0.20109173223071    5.26246084756732
N         2.54764577782482    1.90909124645653    7.20171136213368
N         1.97531606667161    2.85519928428079    7.95316973380536
O         3.12468224579056    3.30187661427767    4.58043104005199
O         0.62039357499190    2.92304330184008    5.53689046747020
C         4.17553603711085   -0.36369156979935    6.45216463057566
H         4.19873710014564    0.49761620905920    5.78399415534123
H         4.46189546687735   -1.24964789702987    5.88969137818315
H         4.90167507762938   -0.21280137737360    7.24878362552311
C         0.53664815502452    2.36102290725869   11.36036726289906
H         0.00178908722072    1.42142691472976   11.24975461403045
H        -0.00379152768651    2.97836632413374   12.07463866640530
H         1.52528894154730    2.15200344035922   11.76331621142048
C         1.17359641614812    6.12455227165110    3.95242260002437
H         2.19013479179546    6.38231970442084    3.65585200274708
H         0.47523972926562    6.76210692489541    3.41503436642997
H         0.99320408701974    5.07869780738148    3.68727919017529
C        -0.42591105581525    5.92920240293388    5.88356997745736
H        -0.60156621084088    4.87497481192978    5.66754242355932
H        -1.14432196630371    6.53333217471427    5.33556649555219
H        -0.56354226652393    6.09931319483528    6.94976981789464
C         5.11705904198737    4.74741171006561    8.95488337953223
H         4.68721634456440    5.70668642494893    9.23612096489626
H         6.12944045952897    4.68682272844320    9.34741699827743
H         4.51625154666861    3.95708916486428    9.40070829376721
N         1.90706741648409    5.36305010246319    6.12799019386809
N         3.77148865904852    4.60924310810987    6.92364358585558
H         5.73149261018653    5.38147932022985    6.97939821650941
H         1.22232609258501    7.31605740176501    5.76212291254256

