85
CSD_code = ZEYWUV | q = 0 | S = 0 | Stoichiometry = C34H45N2ReS3 | MND = 5
Re        6.79360511488973    5.93613156157660    5.17703571075647
S         5.20781691461795    4.45887981234028    6.10984842263134
S         8.39811975370984    5.41118664073114    3.51689499600328
S         6.92859412475972    8.06674094576640    6.18400651917320
N         8.84308870633649    4.61575884947836    7.15228196376008
N         4.72743896003319    7.05222448925059    3.10492038014684
C         8.09203669456303    5.16197551703567    6.45722252342586
C         9.74703214968886    3.90373753204036    7.96075815832755
C         5.49584470193722    6.63313476796253    3.87117587665824
C         9.79168113895183    2.46027851508305    7.44916262434244
C         9.23828937303788    3.95755098070549    9.40341301434570
C        11.12006420927766    4.56948826296942    7.83929182972081
C         3.80071705336644    7.57234889208282    2.18282870259721
C         3.41954830051586    6.44626362644905    1.21804559173074
C         4.46516044020087    8.73184377525535    1.43567549507468
C         2.57824630210256    8.07078464464429    2.95809367387296
C         3.62463989577825    4.69949155039651    5.35017935443272
C         2.74232217066763    5.63833304065898    5.88967232192708
C         1.45980184477762    5.71601409730073    5.36558983392557
C         1.06687113639961    4.89444988235754    4.32306767598777
C         1.96806956522808    4.00233087627506    3.76905747404540
C         3.25472342100455    3.88968495807637    4.27423332503872
C         7.79922705273001    5.81359415663163    1.89758771190543
C         7.85064917683123    7.13824236948934    1.45281777297848
C         7.45374360770778    7.41467721327049    0.15242538165074
C         6.99698745570552    6.40898300413801   -0.68164338909070
C         6.94709343446272    5.10502173539852   -0.22477245791597
C         7.36364038940267    4.78408123226644    1.05967990209418
C         8.11986388424850    7.91272881451128    7.48947455783546
C         9.46386643848246    8.17823178362470    7.21589963693042
C        10.37095846758113    8.14189153569238    8.26476228668803
C         9.95545484849925    7.84699534823714    9.55154183437603
C         8.62645358747751    7.55046947322339    9.79853412428213
C         7.69027671516266    7.57574308438186    8.77498755779754
C         3.19091866524373    6.55418657348610    6.98171825642889
C         4.24818407573839    2.94896061020178    3.67304108125363
C         8.31967468039306    8.23026888971478    2.35980451392028
C         7.37563867052961    3.35770664758998    1.51332170109725
C         9.90671685625260    8.44715174131518    5.81451765284847
C         6.26293053097106    7.20770110912330    9.01900293799680
H         0.76220044136941    6.42920663949390    5.78173806069631
H         0.06241472205535    4.96182866748492    3.93100427008185
H         1.66835839115861    3.37690296461805    2.93979016669806
H         7.51459413683515    8.43065896248238   -0.21301985326626
H         6.68407545388314    6.64243076097828   -1.68891542093636
H         6.59623792775233    4.31741872349688   -0.87643368681993
H        11.41317037253104    8.35188212524398    8.06912980204425
H        10.67150432084256    7.83296462458610   10.36072766398972
H         8.30639046220870    7.30124538604272   10.80071798632501
H         2.42300202577069    7.28660699918548    7.21706161838449
H         3.42754307946989    5.98810817496410    7.88245052041155
H         4.09958887429928    7.07674681286666    6.66885776948753
H         3.87010366757662    2.51179715646886    2.75221244442493
H         5.17291217834357    3.48959139290853    3.46008440995259
H         4.48889141227935    2.14840440122365    4.37313212342687
H         8.21190193348645    9.20264558524766    1.88591740038114
H         7.74208110510134    8.22277037018700    3.28877873094283
H         9.36719757152276    8.07994503606681    2.62121693074476
H         6.63648414482759    2.77087974076734    0.97286099370671
H         8.35982095764357    2.92335769966179    1.33222393950776
H         7.18140904159423    3.28698187268066    2.58261654492509
H        10.98270333427876    8.59358420817425    5.76525993572247
H         9.63354492303669    7.59960690764335    5.17938551405729
H         9.40783967883396    9.33070251556341    5.41698289473656
H         6.10309705657039    6.92681291385358   10.05688147379328
H         5.60415696180464    8.03918743610243    8.77006224524319
H         5.99072643818215    6.36581425585622    8.37670676250760
H        10.48197806033019    1.87482685423954    8.05090974763325
H         8.80323403732525    2.00930941496120    7.50640121826066
H        10.12071788489621    2.43818604317877    6.41240021633914
H         9.91060556088881    3.40362733901444   10.05339910602113
H         9.18630143198319    4.98988843609139    9.74289385957908
H         8.24411335983742    3.52038622238746    9.46901111373370
H        11.84581629486484    4.03328630203247    8.44518482537343
H        11.45151569582956    4.56267148120802    6.80305887131073
H        11.06699503807374    5.60171598205481    8.17896869454262
H         2.71114432173982    6.81373600430970    0.48029595307819
H         4.30568437686831    6.07712166063600    0.70472464662101
H         2.96478900247747    5.62386312190855    1.76666742926182
H         3.75761588356562    9.17429193299861    0.73921061348899
H         4.79150325912946    9.49450022555311    2.13946802666680
H         5.33001693790350    8.37428037522625    0.88301467619611
H         1.85171563995767    8.49138618066758    2.26768122410981
H         2.11562818650938    7.25210297407014    3.50352632757150
H         2.87328390519503    8.83826857475016    3.67039567831717

