77
CSD_code = ZEYYEH | q = 0 | S = 0 | Stoichiometry = C24H38MoO14 | MND = 4
Mo        1.39204932428948   13.13808202414816    6.33071246487936
O         1.55775963562618   13.09687649550611    4.68786045545624
O         1.28215785007584   14.67698177651232    6.92044739175203
O        -0.28305056742176   12.52437566753678    6.53033656258267
O        -2.16966109736344   10.00169031269588    6.90558362650203
O        -3.33930993821783   12.37746326524675    4.79749878107750
O        -4.04662535419635   10.35250649315149    5.56749937609091
O         1.31988945454597    8.32258454219935    5.53520210569712
O         1.37576148206602   10.46265122522830    6.32578912800116
C        -1.10908800430662   11.77307434708048    5.72145748878560
C        -1.05567122436361   10.25649308034281    6.06352769825507
C        -3.21690832987299   10.85984728632143    6.56860486761879
C        -2.60246241644846   12.13816457455769    5.95548541902999
C        -4.04937400916865   11.20490510648626    4.42577140381297
C        -5.49186984268695   11.59415234438842    4.09894278230797
C        -3.39247471421766   10.51172419450977    3.22879482898025
C         0.20884200961210    9.85811370769494    6.84050339395854
C         0.53387520580002    8.36576650593498    6.70137734423307
C         1.99976221597212    9.56024733402082    5.39303791511133
C         3.47361757084533    9.45856962017270    5.79352059656258
C         1.84546550052366   10.06365392030934    3.95918742787572
O         3.02847172727388   12.66457662562261    6.89988746454605
O         4.77861204549244   11.39655975893423    9.22523987190017
O         6.11259008807332   14.13009514833958    7.74115483399703
O         6.70104820644733   12.70232911026594    9.41678326758557
O         1.25212045238922   12.25338349915180   11.12985419936973
O         1.27416620985053   12.23346734324253    8.84802336935609
C         3.83502720561753   13.14279589871526    7.91110568717317
C         3.69725613061919   12.31596841447421    9.22131848251609
C         5.87492745478643   11.96017679350934    8.57146321953719
C         5.33918541882028   12.98712908113101    7.54869934321206
C         6.76894528147907   14.06288536278124    8.99884809797614
C         8.23555212403116   14.44990854898372    8.80284622248815
C         6.10116655040720   14.98142214704660   10.02613883141378
C         2.39775776388348   11.49857950075756    9.28373425730412
C         2.00619940911145   11.13777024192946   10.72189819291584
C         0.62770917561699   12.82510996617476    9.99124329736858
C         0.82762780624297   14.33931200837838   10.00715140377722
C        -0.85581797074495   12.45819357814813    9.90184796322548
H        -0.83924007064598   11.96186605798563    4.66480435170801
H        -1.13788431502257    9.65526908090639    5.14640729692909
H        -3.80481634717454   11.00366487113251    7.48297719576992
H        -2.65546666027029   13.02365094443048    6.59694516617324
H        -5.94664242818710   12.05981186354063    4.96836285904787
H        -6.05596841382217   10.70675155174912    3.83176120203542
H        -5.49402393719654   12.29964554109000    3.27481480089264
H        -2.35116679880250   10.28711992409847    3.43987886564234
H        -3.44001631091602   11.16951728071587    2.36662997147198
H        -3.92151638297160    9.58735934758401    3.01740192439491
H         0.07852537131201   10.17911049738370    7.87883568196946
H        -0.34733223374430    7.74237993258791    6.55406751829124
H         1.10342473103523    8.00677406960747    7.57022985248985
H         3.56623715613378    9.05235441786509    6.79867282849390
H         3.89801868443641   10.46053498617692    5.77288193255013
H         4.00323718281342    8.81257711850490    5.10019555992445
H         0.84327723191183    9.84990732868564    3.59662579476607
H         2.56305308437239    9.57530663616562    3.30786947119064
H         2.00786385204911   11.14292349602311    3.95228809692811
H         3.59968543037975   14.21145642975631    8.07741766524630
H         3.76685563505511   12.97584243222650   10.09828461355783
H         6.44837174703000   11.12427725394709    8.15340597394749
H         5.42282850773307   12.67616071363715    6.50246710066917
H         8.69523635200346   13.77476856552840    8.08698655268360
H         8.75944573578114   14.37826642165559    9.75024412435317
H         8.29035709423866   15.46429995616703    8.42212811588041
H         5.04721967233624   14.74060267358445   10.12826740186881
H         6.19357912397216   16.01119845125961    9.69552982899210
H         6.59057455744057   14.85707895326735   10.98742151989985
H         2.51826979753645   10.62615032690186    8.63362206275929
H         2.86048965177465   11.02873540284484   11.38894733107452
H         1.39634390434608   10.22359790771399   10.74408610858277
H         1.82365158695673   14.57799321052445   10.37111470750093
H         0.09704412012216   14.81078704104642   10.65643675249700
H         0.71870508937370   14.71333134814494    8.98755884377945
H        -0.98297481848589   11.37836821851007    9.94331711433960
H        -1.23756611273432   12.82605850346628    8.95149481317205
H        -1.40031030065850   12.91051439195036   10.72493993428967

