93
CSD_code = ZEYYOR | q = 0 | S = 0 | Stoichiometry = C32H56MoN2P2 | MND = 6
Mo        8.31902302157171    6.73398674572263   12.91914912112081
C         8.73465591882484    8.83848204171752   13.49904849807764
P         9.55274386089515    6.39184421507251   14.99781946807176
C        11.38260396470535    6.43342953057371   14.90499148465374
C         9.24700832586378    4.78472585515997   15.82109119996469
C         9.28471990895423    7.47755545933162   16.45518430959815
N         9.75498007762709    6.22482632488628   11.98974630827669
C        10.79518913550466    5.71440738715163   11.33928071038489
C        11.11970420068662    4.32526118053698   11.36790147485818
C        12.22763327413979    3.86458000171477   10.68274028250919
C        13.04598855808177    4.71649789624891    9.96303328524033
C        12.74284323207142    6.06708891800691    9.92282968342199
C        11.64207357791008    6.57563372047293   10.57921240550967
C        10.27690186295465    3.35342269555487   12.16009115032652
C         9.72712757493315    2.22863471775931   11.27792614159653
C        11.08409137372830    2.74150286323460   13.30955856469175
C        11.33215185513431    8.05312580776333   10.52982853053403
C        12.30797267091077    8.82812068244730   11.41897544410982
C        11.35281403440081    8.60711861892796    9.10421231268531
H         8.29582977442590    9.22607096307863   14.41722184664753
H         9.76180849627071    9.17949898592777   13.36336020462172
H        11.69799192722536    7.46305112516106   14.73873726078563
H        11.70813277080466    5.83565198215696   14.05495844541547
H        11.83533120253343    6.05873931074703   15.82314918794126
H         9.44259760718050    3.97349743786912   15.12420719216616
H         8.19357721851855    4.76274627681665   16.10292666208163
H         9.86826356155567    4.66854346382316   16.71031286168037
H         9.65008617813811    8.48213832852372   16.24939398346679
H         9.80785632831183    7.07493541799711   17.32308342603800
H         8.21673285789993    7.52178959860062   16.66420358275603
H        12.46724062301599    2.81064698042090   10.71267247889394
H        13.91090870258886    4.33364966936748    9.44159827194814
H        13.38458897473486    6.73389596443270    9.36452877013773
H         9.42922161983954    3.92008334494424   12.58368029698013
H         9.00013736331538    1.63608721394746   11.83094002943659
H        10.52880730894846    1.56618172314379   10.95873473433864
H         9.24585895563649    2.62700888960647   10.38900331709675
H        10.45779993639231    2.07738034496070   13.90415368019360
H        11.48814748806154    3.51611022932437   13.95737891571694
H        11.91757893735221    2.16067364201735   12.91977896234614
H        10.32254957074776    8.18404718508367   10.93849724460731
H        12.25528597658850    8.45742268696479   12.44084222995074
H        12.06587439638659    9.88992589276406   11.41869417444944
H        13.32912225340140    8.70564102943701   11.06317219803860
H        10.74826605453808    7.98939530149910    8.44221152994712
H        12.36544397751215    8.63570275837934    8.70896595911880
H        10.95769601542357    9.62184553286248    9.08926607839006
C         7.90320089459134    8.83841558043538   12.33916726052433
P         7.08538184799613    6.39166214145690   10.84039919357471
C         5.25548515534773    6.43234812871038   10.93291969451572
H         4.93956988533916    7.46173671895095   11.09961478748017
H         4.93008247101838    5.83403386149273   11.78262301681059
H         4.80304622820704    6.05787766215956   10.01452241392093
C         7.39180079960019    4.78479717639032   10.01689342802701
H         7.19617517512022    3.97344426235227   10.71361775994937
H         8.44532166728982    4.76306671645129    9.73537518702158
H         6.77084064791052    4.66856295471788    9.12746804432501
C         7.35292581673522    7.47758175253590    9.38309511448581
H         6.98721810570425    8.48201705913232    9.58900032144905
H         6.82990703907099    7.07489187777605    8.51515239053881
H         8.42088526083372    7.52221939555097    9.17403295534524
N         6.88256023466250    6.22479347685305   13.84774837962626
C         5.84170904462868    5.71450354088422   14.49729067195535
C         5.51679474506489    4.32546282053219   14.46809072577733
C         4.40764214936471    3.86510258760656   15.15148728275319
C         3.58846483718887    4.71722891048843   15.87000580173652
C         3.89219592260201    6.06766508613832   15.91106812046111
C         4.99419069923703    6.57587858672078   15.25648068122141
C         5.30492290206743    8.05315518063674   15.30715358430545
C         4.33006319384807    8.82954861450569   14.41818919610685
H         4.38299169862906    8.45967970138770   13.39603196646966
H         4.57289961068919    9.89118541138369   14.41948404899028
H         3.30865042375429    8.70749203693163   14.77337506085521
C         5.28384700350298    8.60584788115880   16.73327833491109
H         5.88792159827546    7.98729659883231   17.39494032809419
H         4.27105976888854    8.63435340553360   17.12813056198437
H         5.67928135098074    9.62043495067943   16.74935411900327
H         6.31483515109949    8.18382039792205   14.89916746282151
H         3.24995454659194    6.73463643656400   16.46861156567276
H         2.72254880865388    4.33461021151108   16.38994946409806
H         4.16769655324713    2.81126170139670   15.12108207740884
C         6.36069127094770    3.35333968556506   13.67741594476590
C         6.90990001394151    2.22949314871329   14.56114179842283
H         7.63740321945633    1.63645401972380   14.00933121490336
H         6.10801166015800    1.56731402271784   14.88038301604176
H         7.39041379971232    2.62883336741133   15.45003865393027
C         5.55502311631628    2.74017608713638   12.52755493528105
H         6.18239733156603    2.07624847039306   11.93388775782365
H         5.15092847369951    3.51410839756565   11.87895174921863
H         4.72165440840375    2.15885994938757   12.91685328835737
H         7.20863373012594    3.91996889518498   13.25431668466724
H         8.34198207373024    9.22602457197909   11.42098307285645
H         6.87602715795246    9.17936061629496   12.47484698068908

