50
CSD_code = ZEZBAJ | q = 0 | S = 0 | Stoichiometry = C21H22Cl4NPPt | MND = 6
C         4.80948071779440    5.76040862197997    2.64558731558553
C         5.62373569233892    6.46319864235471    3.53034734269275
H         5.92057201644036    6.00432855814512    4.46336120547484
C         6.05772840921544    7.73453707520774    3.20632626117133
H         6.69580808902850    8.27253001740467    3.89095009043426
C         5.67834855042465    8.31423477549803    2.00625263909244
H         6.02226956963289    9.30550115192745    1.75084050654069
C         4.85643342540704    7.62190075015101    1.13313369885840
H         4.55417770907657    8.07363086279488    0.19956661170104
C         4.41795957131369    6.34776120383868    1.44722513114035
H         3.77725099544885    5.81634074319595    0.75771203095360
C         3.43767961960342    3.37678360968096    1.72368149845709
C         4.17455601834061    3.31659257338070    0.54053100239278
H         5.16097118116657    3.76074914552911    0.50050931768708
C         3.65148320134352    2.66899581696082   -0.56177052064131
H         4.22167523789831    2.62245156065779   -1.47745910510423
C         2.40765751339743    2.06113769021098   -0.48414774902718
H         2.00572383311772    1.54658311907326   -1.34425643590623
C         1.68982698337441    2.09216840896961    0.70020002472112
H         0.73143312031310    1.59887634554408    0.76597825425776
C         2.20350669808794    2.74049860862309    1.80899297322210
H         1.65654951286418    2.74727749450947    2.74153161539637
C         2.81648349859274    4.65159955989359    4.23595703989570
C         1.78960557701019    5.36445636197588    3.61840116996404
H         1.82703387466202    5.55289342165120    2.55381227773972
C         0.72402143561941    5.82403367215244    4.36711999684403
H        -0.07321669737458    6.37076857189259    3.88520274757487
C         0.67961615232070    5.58537040506873    5.73239937520725
H        -0.15609836483985    5.94471954848243    6.31428426636321
C         1.70827594278458    4.89363666289643    6.34753403386167
H         1.68059564377812    4.71399462203701    7.41155994415186
C         2.78086654298276    4.42818337027110    5.60492391126896
H         3.58654084435123    3.89942896086245    6.09009112453751
Cl        6.14948887889699    3.89503353247690    5.86368519103124
Cl        3.98124784270497    1.46110161329490    4.81707527306294
Cl        5.59686735718390    1.00681710176150    2.09054214179062
Cl        7.41418210779901    3.79425964386302    2.68456614396369
N         7.39725010706500    1.63271313115019    4.63018189221394
P         4.20569780615679    4.12810662880193    3.17939353342875
Pt        5.87428975173370    2.48802954827385    3.93932181395270
C         8.03283388350481   -0.51751047142311    4.31036768117503
H         8.07147887482856   -0.60538918823179    5.39252003739370
H         8.79662832262132   -1.14274387353568    3.85699335868416
H         7.04956894449338   -0.81159759274143    3.95282156241314
C         8.32981510699832    0.95788922750809    3.88484090017559
H         8.20661561664662    1.01633201230005    2.79165987537100
C         9.75906192697849    1.34496669016491    4.28702833273649
H         9.94959619866108    2.36833682770881    3.97412792349070
H        10.47208393736955    0.68317828254269    3.80351046064796
H         9.87244122084021    1.28300495326204    5.36598428196270

