50
CSD_code = ZEZFOZ | q = 1 | S = 0 | Stoichiometry = C22H22N4OV(1+) | MND = 5
V        -5.92894739260080    8.11728797504626    3.33872402586716
O        -4.86136393954529    9.20835761921219    3.47769622872663
N        -6.15694685373827    7.54690742199366    1.59032369565338
N        -4.87284612878385    6.55323692884765    3.62412674121431
N        -6.33771281162835    7.78329036771645    5.17209981861393
N        -7.64121130168762    8.80534984919916    3.16507061359375
C        -5.86249646232545    6.44986704183429    0.91247344428925
C        -5.23880314705159    5.40296681369314    1.57972464330857
C        -4.73283928992446    5.46786388026646    2.88658986304474
C        -6.22225447152235    6.28249919548877   -0.53446180463578
C        -4.03876099854351    4.23814025395690    3.39986071804654
C        -2.98547987559954    6.40012826208672    5.25800167010234
C        -2.54647384047983    6.74753206998988    6.52488920816364
C        -3.37411428027052    7.43821022110525    7.39896340977282
C        -4.65836598743366    7.79733027337520    7.02473040136101
C        -5.12259807678497    7.44319611732472    5.76165581697506
C        -4.27869046945382    6.73722381652021    4.87037331202606
C        -7.49574551051449    7.78815489390533    5.80549330594994
C        -8.65764082014591    8.28776614104751    5.19901596427827
C        -8.71338927757626    8.86659811159951    3.93697214669765
C        -7.64343684065081    7.25211116815854    7.20134015655137
C        -9.99593224133578    9.49517597506862    3.47784528721884
C        -7.78101914304283   10.79761545335662    1.68704099810543
C        -7.36814471241012   11.36049242695461    0.50019407848195
C        -6.54162879572368   10.65685210378338   -0.37969712572244
C        -6.11641787461072    9.38103446650054   -0.08427256400242
C        -6.53761795603353    8.77215698202566    1.10623902244747
C        -7.38374141905019    9.49147769356006    2.00584892316055
H        -5.06242517473440    4.49246249758851    1.02727315202722
H        -7.02131924712041    6.96200605448460   -0.82468923696870
H        -6.53805942488058    5.25845936157716   -0.72063476465691
H        -5.35352542754236    6.47516186133857   -1.16393967777548
H        -3.00525370635069    4.21499895365624    3.05593009943004
H        -4.53100129717149    3.35016332064727    3.00970081192279
H        -4.04388887441141    4.20110646736671    4.48686313375024
H        -2.30656572575318    5.93408214915214    4.56169139637644
H        -1.53960143630749    6.50104031788679    6.82259141314189
H        -3.00638266371885    7.72437435985462    8.37161848544586
H        -5.26198904867836    8.40184248954276    7.68287318131194
H        -9.56106158357704    8.28849904349029    5.78991524386138
H        -8.60977667297265    6.76376847931529    7.30528451687649
H        -7.61004211476071    8.06497530572484    7.92587259663898
H        -6.85606392632344    6.54094355091391    7.44077449794176
H       -10.08331738873268   10.50626263491659    3.87562381603171
H       -10.84257007429749    8.92413075748037    3.85206784319654
H       -10.04727623117895    9.54185121793911    2.39171792320531
H        -8.36734495277993   11.37230888267229    2.38768044311603
H        -7.66866245890382   12.36710070898485    0.25471074864385
H        -6.21523865180683   11.12937408640265   -1.29293671258734
H        -5.42801399952789    8.87036397544779   -0.74025091021946

