34
CSD_code = ZEZJAP | q = 1 | S = 0 | Stoichiometry = C7H17CoN5O4(1+) | MND = 6
Co        4.06571859599817    3.25231029680086    8.21628508466883
N         2.50772508731497    3.02810234597018    7.16685297967921
N         5.33642132538143    2.97615557994763    6.70719976273424
N         4.20945937647230    1.29143971605249    8.45050206012654
N         5.53986461635827    3.69201790128495    9.53597581458740
N         3.91394445826542    5.20470994236614    8.01029707466893
O         2.89432069468130    3.33282774884268    9.63707455909292
O         0.81738803266418    2.88870982544489   10.27474281916927
O         0.28837622391003    2.49222144372433    7.45079683614393
O         3.29905967463324    3.63067351393642    5.12974252892151
C         1.65528936263524    2.99778868198161    9.42275893434602
C         1.35464180307766    2.78538262404854    7.91571175296269
C         2.38287132025009    3.27262438325225    5.84855350549537
C         5.47445806748413    1.53291745936179    6.42772088992943
C         5.40314920579845    0.78198180474946    7.75255207225522
C         5.87970637059585    5.12042239882882    9.41049991301908
C         4.57422865055873    5.86043151187046    9.15359732898092
H         6.26034057146332    3.39740291990907    6.77738614323779
H         4.85259200907964    3.39351399021693    5.88679844952867
H         4.20127524077473    0.98610967976525    9.42577094066890
H         3.38175176222445    0.86436427251256    8.02643806341220
H         5.04257178491456    3.57284872603357   10.42232482535038
H         6.39645363038392    3.14542820958587    9.60849394744160
H         2.93357673744234    5.49185916359030    7.99113990678023
H         4.31921095821626    5.54127005947681    7.13370805076528
H         1.35891217549961    3.14321676015516    5.46604967342277
H         6.40492101931028    1.30980774064878    5.90105211822840
H         4.63983335875754    1.22610706404713    5.79370987986957
H         6.28914781173075    0.99173930148689    8.35614180354879
H         5.34704289397551   -0.29768403096126    7.58728339463913
H         6.56212763730652    5.25422584587411    8.56669697641375
H         6.36625831343813    5.50416165332803   10.31201994129371
H         3.92367365600080    5.75640849259637   10.02495995775124
H         4.75078757340046    6.92270297327176    8.96546201086870

