39
CSD_code = ZEZMIC | q = 0 | S = 0 | Stoichiometry = C6H20B9Br2IrS | MND = 7
Ir        2.80178020052108    3.11897673824771    6.17777672742477
Br        1.50766807430059    1.06047011275840    5.52610589325406
Br        4.54130445515061    2.38715322945605    4.63375526580659
S         0.16864904247766    1.85296673237389    8.04239863799780
C         3.83650646217143    5.70111536661148    5.02444683193195
H         3.84731605436463    6.79141928904065    5.04111346032473
H         3.14953473098576    5.39586299387626    4.23318571038642
H         4.82769495275728    5.34585179277089    4.74826874785519
C         0.10190254002291    4.30995289740699    5.74323327031330
H        -0.60803234346703    5.12424382525217    5.89298567736602
H        -0.44286528348326    3.36535625506327    5.76053067428363
H         0.51340679083765    4.42966953045062    4.73954862095935
C         1.09390445858419    0.55208849781747    8.89916216301532
H         0.38888490055990   -0.21390110436053    9.20598161529964
H         1.61044382022850    0.96819727752119    9.75699035718320
H         1.80220020340378    0.12800689963019    8.19597487201157
C        -0.82845621483729    2.37985456811291    9.48739436112227
H        -1.47461127483861    1.55444562275658    9.76658994655399
H        -1.43521593013253    3.22445083984417    9.18189012786136
H        -0.19281141157812    2.66518919059996   10.31690285763144
B         2.37617978939052    5.78886526703390    8.91426781820888
H         2.21915198440954    6.67624023171092    9.66984267935503
B         1.99538965397632    5.78936045369081    7.01245501191734
H         1.54956273033747    6.73579412917313    6.46961471170870
B         0.97719221756384    4.98327424141606    8.30133019767390
H        -0.11880761455428    5.33596256205505    8.53889047099043
B         2.11957591681025    4.08243238755905    9.34904986053095
H         1.82340027218570    3.71389254175423   10.43128244798426
B         3.75397519256730    4.65417030490656    9.00964312271518
H         4.56643780090208    4.69269039827790    9.85928461120261
B         3.66976812748584    5.93376124827928    7.76405183350439
H         4.28977997561943    6.92693335196033    7.68187483150054
C         3.41790289555083    5.15021678701265    6.35774763837025
C         1.19480146573057    4.35334472406738    6.77758118188066
B         1.47131987658260    3.28869580690169    7.92857656368418
B         3.22191017330520    3.12137865550655    8.29145895783858
H         3.66897925241093    2.08678255975100    8.63410948099965
B         4.29415679133249    4.26282572980166    7.35676767332545
H         5.41471927036452    4.02890806391117    7.10773508802669

