57
CSD_code = ZEZMOI | q = 0 | S = 0 | Stoichiometry = C14H32B9IrS | MND = 9
Ir        2.83825348809134    1.14472054285076    2.56735381608785
S         4.41715782885445    2.03422520557193    5.21284312001649
B         5.73919283566141   -1.92191982511309    3.40692887896960
H         6.56889256935734   -2.72269360994573    3.65055313185413
B         4.04810941512417   -2.19833028885114    3.80742240622883
H         3.51895454797588   -3.08677546513546    4.37238464653829
B         4.94189834308011   -0.96349072059114    4.66648118550903
H         5.05860913867443   -1.06128487458279    5.83989505453253
B         6.04633037810083   -0.19200737668068    3.51836007920113
H         7.09517692507825    0.26105350749722    3.83737234743822
B         5.70663762164469   -0.89412783008431    1.91612904097371
H         6.53694968641588   -0.97329081066434    1.08164319789214
B         4.52975456227105   -2.17531953798578    2.15199887983363
H         4.35719658757599   -3.12332366320853    1.47538962067956
B         4.53239674438161    0.58627551434704    3.96251800141864
B         5.00826301449603    0.69241639108650    2.30829558236113
H         5.52303650021988    1.61018353143515    1.76166169141586
B         3.98844657603910   -0.58382043184487    1.52776395436966
H         3.58959668774214   -0.60258579734466    0.41779755469755
C         1.73680863864785   -1.91099762944164    2.39172358880948
H         1.84633026021687   -2.70309694382692    1.65291479728310
H         1.05409014657447   -1.17242485738218    1.97554712161980
H         1.27033176885363   -2.35040499920414    3.27431221017820
C         2.25517265014212   -0.58753858025314    5.12971120818092
H         2.25947391163754   -1.53588013013616    5.66844852343553
H         1.24952493067701   -0.44748210097390    4.73914054720395
H         2.43835587859441    0.19793162292572    5.86555552198656
C         5.26706115150604    3.34653234928511    4.28747378328802
H         5.42541015032731    4.19588206389544    4.94553826593574
H         4.62675672839920    3.62394137459845    3.45937013351912
H         6.21035782499128    2.96788110424998    3.90893579863916
C         5.76427402190123    1.77696087632036    6.43836704523529
H         5.96958909676586    2.71754355999651    6.93865400859839
H         6.64569047677855    1.40349513203310    5.92855446980565
H         5.42240160762820    1.04495272028097    7.16126683522312
C         3.10314371320759   -1.31668712066612    2.69838287712451
C         3.32276251791554   -0.55416512044638    4.03896458830941
C         1.43109845864581    2.31286618323096    3.75406621665265
H         1.46149083357886    2.02596659694608    4.79997440217929
C         1.59365021729907    3.80350726666273    3.55340326971877
H         2.27941177632953    4.17625144793197    4.31685402507671
H         0.63287316054322    4.30328567642953    3.71856509128768
C         2.13844547599857    4.15097468759967    2.15714088875968
H         1.32034360604188    4.42193185821881    1.48945723826702
H         2.78694783418792    5.02631194806601    2.23272367874333
C         2.91488243791928    2.99761221432735    1.53966980057405
H         3.92807390191152    3.26519638352325    1.25526271241038
C         2.29821072868360    2.02037647287622    0.71518725170831
H         2.90174275320877    1.64388926839035   -0.10474356005503
C         0.81719607314976    1.98757043141509    0.40496785942074
H         0.60875838962369    1.05378892987466   -0.11949312774771
H         0.56257165111104    2.80454567513823   -0.27885998477289
C        -0.04320883687502    2.05604129888299    1.67539466232955
H        -0.34350998316760    3.08464797654190    1.87814740245777
H        -0.95831598881268    1.48033414073397    1.52236773735348
C         0.69771672833905    1.50518364505055    2.87666355524159
H         0.23973185673574    0.61287011614945    3.29039736600088

