128
CSD_code = ZEZSUU | q = 0 | S = 0 | Stoichiometry = C48H74Br2OP2Pd | MND = 4
Pd       13.91093282029738    3.57679047648390    2.62986927127492
Br       13.76240731163045    5.74307637922987    1.48034856444504
Br       10.64160865257491   -5.52398901831101    7.63055675570556
P        16.06254994931103    3.40140886696676    1.82531970188607
P        11.71386768878080    3.71428136570050    3.28950979281710
O        14.67311509921998   -1.23314244076227    6.34503845451124
C        14.10864243387355    1.92170926783774    3.66966608369697
C        13.79414308566990    0.62260928988750    3.28872728604503
H        13.41910194859814    0.41523395748458    2.29248649728963
C        13.95937999487170   -0.43793704754724    4.16585639344942
H        13.72832594093907   -1.44795977202760    3.85499584992808
C        14.43300221725885   -0.20210351042519    5.44946595096208
C        14.76418972622870    1.08773243098114    5.84133675494309
H        15.14866656032310    1.25157021712132    6.83706647778964
C        14.60742071512461    2.13622308267581    4.94715997875718
H        14.89294004972266    3.13802059588131    5.26752066553731
C        13.72190945023508   -2.17278691935476    6.57263649270619
C        12.37028517953090   -2.00295114221198    6.28128732115388
H        12.02704117117129   -1.09133744276580    5.81596616628233
C        11.45993172794900   -2.99333049088017    6.59589967722507
H        10.41264961993380   -2.85703035271773    6.37325734453468
C        11.89934815058611   -4.15596587467307    7.20242832284845
C        13.23836758427742   -4.33991667353194    7.50629749734488
H        13.56825869142825   -5.24978550341349    7.98320197630063
C        14.14522749945374   -3.34984477906867    7.19199195215426
H        15.19225428912528   -3.46676956351690    7.42235937027089
C        16.95200511310593    4.96372932954032    2.32628007796867
H        16.50435692835187    5.73186671161721    1.67942028324028
C        18.46496782830345    5.04808718998594    2.14398224724511
H        18.98110554868755    4.35032543580190    2.80529673746334
H        18.74246379611927    4.80716322420665    1.11628878410801
C        18.92413451638097    6.47035470768602    2.46821073975222
H        20.00675302512642    6.54403623766917    2.34264279376903
H        18.45666484097895    7.16758798224880    1.76940451671374
C        18.53887415369836    6.85331941480495    3.89442263539667
H        18.86100906805227    7.87545655646707    4.10185177212227
H        19.05219159762454    6.19262255624497    4.59832921179111
C        17.03051232325180    6.73376152742387    4.09443202394003
H        16.76967621962533    6.98472058012365    5.12504979509272
H        16.51585094121728    7.43694346754557    3.43608356759508
C        16.57092048425075    5.31682499750061    3.76917280365288
H        15.47477761478329    5.24433585507572    3.89166512535958
H        17.03253395908971    4.61574283985781    4.46955339625490
C        15.92787874309794    3.55228842498241   -0.03107499964353
H        15.71258644406323    4.61909876289272   -0.18997820838037
C        14.69602451390770    2.77000387936954   -0.50312096474198
H        14.86139636061737    1.69431418186534   -0.39635495692962
H        13.82925836967289    3.04247097882542    0.12616330483613
C        14.39632802165189    3.09520469264636   -1.96227073246318
H        13.53064828478555    2.52264430098883   -2.30392986632499
H        14.15535568416757    4.15685731860200   -2.05123350786598
C        15.60657529260813    2.77069961997459   -2.83341102477525
H        15.39639785577955    3.02973941242722   -3.87278539817519
H        15.80698927641010    1.69670995749692   -2.79123410629078
C        16.83529864011318    3.53417569993879   -2.34809342766221
H        16.65343031994514    4.60710955471509   -2.44134034142002
H        17.69812077739792    3.28431261452710   -2.96954701366500
C        17.14062017980926    3.19864586018178   -0.88787035241194
H        18.01702839117210    3.76369726095308   -0.56554540629305
H        17.37701861319805    2.13597155477278   -0.81225747701745
C        17.30778645153950    2.03546676172993    2.10031171595209
H        18.19571391340718    2.31685545934355    1.51863245264896
C        17.69947499188318    1.89636433014114    3.57169791142851
H        18.09068469524886    2.83754379205757    3.95890483069296
H        16.81621340148119    1.63298627800512    4.15587341592574
C        18.75480815617132    0.80835645499684    3.75112180430732
H        19.02183709428801    0.73065664904631    4.80720521896192
H        19.65743859303344    1.07772515377695    3.19578776035981
C        18.22793404070405   -0.52919283059671    3.24591654900222
H        18.98886218598877   -1.30306604919108    3.36537179453718
H        17.35515628643141   -0.81921143450563    3.83593002011233
C        17.83103173069558   -0.40569199513980    1.77968934647520
H        17.43166449172480   -1.35588888321410    1.41810389896108
H        18.71562998350299   -0.16621677651636    1.18314517290073
C        16.78307251256262    0.68948879226713    1.59979847429505
H        15.88832480811741    0.42489953105718    2.16674013064338
H        16.50910203766106    0.74876817696281    0.54579874865556
C        11.12006536309215    2.54343329743911    4.63240491061715
H        11.66775795430568    1.61546219599984    4.41053819221174
C        11.58143391328013    3.02149938621724    6.00935328225231
H        12.63380112443191    3.31185202708470    5.96806057982707
H        10.99422997699803    3.88980975840180    6.31210274594174
C        11.38840869884929    1.92291942375467    7.04948771921764
H        12.00660012853175    1.06168715715644    6.78695594424286
H        11.71726470234645    2.27843057937484    8.02843669438625
C         9.92088681587357    1.51200693995991    7.11225202819413
H         9.79217819839252    0.69228167710509    7.82208689284098
H         9.32501668584421    2.35663274335775    7.46699530773341
C         9.42110637453533    1.08752206569210    5.73515597111192
H         8.35921669566325    0.83703644704834    5.78798189124598
H         9.95695833142167    0.18973488668977    5.41578591301077
C         9.63406918256825    2.19111903762206    4.69704289285837
H         9.27105048312478    1.82716713199286    3.73537151641552
H         9.04521664156530    3.06632682310454    4.97397755739989
C        11.23042769645082    5.44909003085860    3.74543231549705
H        11.35477019730085    5.98614528647002    2.79455497696183
C         9.80654325766123    5.70233441490719    4.22830449057359
H         9.08150905022128    5.25091211978204    3.54729965379216
H         9.65481064519970    5.27673930512842    5.22203691890336
C         9.57643715508340    7.21278733664249    4.29621249010789
H         9.67117289971256    7.63608899645106    3.29383472557173
H         8.56379895808562    7.41623206350598    4.65224340160360
C        10.59452996316080    7.87717967099766    5.22031310906728
H        10.45237262047410    7.50751128598450    6.23953447507617
H        10.42953266881597    8.95611032425128    5.23251967051016
C        12.02161849084689    7.57544133223159    4.76882575453308
H        12.73389967198986    8.03219152527243    5.45903733459892
H        12.19496280110501    7.99839049501666    3.77745598508605
C        12.24050158910615    6.06712137540674    4.71607555866409
H        12.12357222878734    5.65568397678200    5.71921407545887
H        13.26306419358768    5.84576720605063    4.37841245543368
C        10.58887640290098    3.28053689369774    1.86921029251168
H         9.55703614820855    3.25963718947570    2.24022374683691
C        10.66129563277047    4.26655988499409    0.70399228145385
H        10.36016702060393    5.26564603673499    1.02254230405878
H        11.68718863339176    4.32707696867666    0.33353406132855
C         9.75685624039551    3.80801717223701   -0.43642867419840
H         8.71958743975488    3.77232519308859   -0.09268166123352
H         9.81401089449619    4.52874021159246   -1.25382440464169
C        10.17719539612773    2.42767070284046   -0.92870455385490
H        11.19597022056828    2.48085699830297   -1.31910762752547
H         9.52313433499477    2.10077754328642   -1.73949300009098
C        10.12573294317183    1.42569320056974    0.21923111202700
H        10.45851537507673    0.44329263825957   -0.12362034212372
H         9.09364365884357    1.32459225902795    0.56574162505061
C        11.00176281254640    1.89026246200975    1.37825810416781
H        12.05014907218177    1.94410750820898    1.04693575133341
H        10.94323575602511    1.16378731501986    2.19301167603030

