48
CSD_code = ZEZSII | q = 0 | S = 0 | Stoichiometry = C17H22MoN2O3S3 | MND = 6
Mo        2.66231645242025    2.97506379516724   11.47791939897811
S         1.35835106903462    4.57671561273204   12.96539464109910
S        -1.83491097229210    4.50373788874195   10.90031505950919
S        -0.49529196827360    4.68608486936735    7.92334172243386
O         0.57259389364357    0.88249835247250   10.62436033198883
O         4.55673005319552    1.36500548097559    9.67807884858580
O         3.10541681969297    0.88251863477646   13.67706299066418
N         2.45235805188380    4.64439303225915    9.96064693968655
N         4.14648392708566    4.29539801144798   12.11962152924639
C         1.29437408421849    1.73233636973622   10.91867832209932
C         3.85017947619420    1.97347440768719   10.34448874584094
C         2.94678127345237    1.67672319612811   12.87009511548936
C         1.43322493004763    5.61358393961407   10.36959469895207
C         1.46370415014612    6.00719227476011   11.83593974985646
C        -0.42997609089572    4.39240903090504   13.28684958986389
C        -1.18432239823805    3.52352484801286   12.30450069617843
C        -2.10466729703439    3.16802338598200    9.67832727434212
C        -1.97232545924815    3.67092789591064    8.25246995385615
C         0.85344094409159    3.52212474462582    8.35958771190309
C         2.18136179621008    4.23139198158773    8.57507765892997
C         3.78240865207487    5.25862069458990    9.95929824093920
C         4.41118507629288    5.32524447401453   11.31835372045009
C         5.26305107962151    6.35824300828558   11.68398497734650
C         5.86912371300804    6.31941561898432   12.92941078393131
C         5.59437904997800    5.24126390475829   13.75806355182724
C         4.72938855774366    4.25858049692364   13.31249454921862
H         0.45090499233150    5.18117743637081   10.17293649982134
H         1.51955277132284    6.53160533417110    9.76196301505148
H         0.62064053684594    6.66363814923648   12.05403810607631
H         2.38830812713648    6.52152693254133   12.11305738108680
H        -0.45435596381440    3.92981845587699   14.27523297813476
H        -0.85026635716473    5.39628471313730   13.35103053313081
H        -2.03538202833961    3.04649751024758   12.79351730283014
H        -0.51355860578057    2.75563645412966   11.91278088141570
H        -1.38240208036197    2.38132921384228    9.89129820947705
H        -3.11007291303576    2.76986482376477    9.82830660657164
H        -2.79688296781793    4.33750665077170    8.00039859009171
H        -1.96629678460669    2.82571555970827    7.56222685575080
H         0.58192511647577    2.99007346322871    9.26687190146182
H         0.94218431541069    2.81240057081876    7.53745120840610
H         2.97272785601675    3.53436350083887    8.28656189452843
H         2.22527692441056    5.10914145267343    7.90944222384166
H         3.75477544447647    6.25849522566511    9.49430038509134
H         4.44059639430853    4.62258926237243    9.35184566796058
H         5.44695531350150    7.17466375762591   11.00141467950771
H         6.53754373758457    7.10693071136442   13.24119806298145
H         6.04440328791159    5.16259481149859   14.73461888557784
H         4.48866401913530    3.40315005966855   13.92865132798755

