45
CSD_code = ZEZTEF | q = 0 | S = 0 | Stoichiometry = C19H22N2OPt | MND = 4
Pt        3.44556621015208    4.33290960167692   10.23335883532542
O         1.47024484200879    3.94001841469187    9.60018248918727
N         2.75763217975125    5.42126270499928   11.73850909754839
N         4.07799492734780    3.01102812423585    8.87312066478784
C         5.02209648974871    5.65960989514173   12.19808838249087
C         5.20140450971552    5.04672276820710   10.92926412520274
C         6.48686458753139    5.12388496406989   10.39834715597901
C         7.54244946939529    5.66869611868658   11.11541112230606
C         7.35430071860625    6.16825467355700   12.39619353473079
C         6.08354645837642    6.18775463367906   12.93227235457632
C         3.64671139847209    5.80472378321919   12.58587508194554
C         2.07266826841520    3.04309896979424    7.46392037499755
C         1.16445920465085    3.63754563586072    8.39896149649784
C        -0.17019292503769    3.84511722704336    7.95378138523713
C        -0.56514204961020    3.53565898496250    6.68329891794962
C         0.33356800501071    2.96427146479384    5.77427109472578
C         1.61787397983919    2.71263187870311    6.17324690604674
C         3.38625829131339    2.65193476683486    7.83753419419848
C         1.36042622138598    5.63348186146223   11.99406196699368
C         5.25388626702198    2.22523206894922    9.18430970345343
C         5.03513452939877    1.44625396688634   10.49514996667102
C         6.36221695934848    0.89055821230782   10.99974859837459
C         4.01019244834870    0.33310603467494   10.29855365107411
H         6.68733601749658    4.78124064525944    9.39162308657530
H         8.52744158919105    5.70222091172748   10.67059806548786
H         8.18998407505722    6.56636186039785   12.95271257696430
H         5.90196080027453    6.62356230166244   13.90505634901438
H         3.36785492230697    6.29567815570578   13.51817655243543
H        -0.86086974814877    4.28280211217780    8.66021677446112
H        -1.58295330908884    3.72935358078488    6.37439314811243
H         0.00919166795748    2.71897421729734    4.77451514100133
H         2.31984769635387    2.26074813484626    5.48469070954530
H         3.83930180838736    1.91269563448260    7.16903034810727
H         0.95985174775229    6.31635517595950   11.24118606765200
H         1.19197115520324    6.05198121019027   12.99161469410922
H         0.82370022207254    4.68889399526064   11.89083638022145
H         6.11115573950970    2.88435473640472    9.31839515009954
H         5.47505665314840    1.51895708474283    8.37338817543718
H         4.64202381567743    2.16421498986713   11.23539035242517
H         6.79812922807227    0.21715748785355   10.26432459488150
H         6.21392883908310    0.33764511771390   11.92377813403865
H         7.06474990966163    1.69785865213410   11.19171861002655
H         4.36965795941163   -0.39640500344914    9.57452468322589
H         3.06634423345415    0.74139959028418    9.94256863258354
H         3.82407398598924   -0.18100734573437   11.23820067331668

