33
CSD_code = ZEZTAZ | q = 0 | S = 0 | Stoichiometry = C10H16I2N4Pd | MND = 4
I         0.87690154849603    3.16674753248529    4.14634124150912
I         2.35039918959477   -0.25822307188446    2.98589771291134
Pd        3.22053969139732    2.12502680186459    3.62422349567445
N         4.19717165215757    5.00297103236262    3.87578226407113
N         4.08033307649871    3.95681091494438    5.75262108829707
N         5.25789509474872    1.50815821161341    1.60320019946214
N         5.96604784035133    0.80271459227884    3.50889778541310
C         3.94504237256425    3.80323094747790    4.42316125856808
C         4.05779654525975    5.29429517833954    2.47476951588152
C         4.50046193388375    5.90997757689432    4.85953799955182
C         4.42460790574865    5.25258858993122    6.03947222559822
C         3.76018166466536    2.94170251053477    6.72356797463449
C         4.97253286600419    1.48495820710384    2.91744117378574
C         4.37274402280706    2.02234258117891    0.58937263162429
C         6.43616825891436    0.84688206467046    1.37050319409515
C         6.88281416957130    0.40525677518319    2.56872602525846
C         5.98843897486616    0.46074826250436    4.90523725832803
H         3.70405778446990    6.31595940697924    2.34389729081841
H         5.01038296830056    5.17390836151386    1.95074475218016
H         3.31547828886795    4.60695855948294    2.04856902992219
H         4.73017627795303    6.93273241789066    4.64341634150314
H         4.57360821561510    5.59731798587824    7.04172338101391
H         3.02596462658046    3.32666398643535    7.43342191823263
H         4.65202684157392    2.62050077729191    7.26687091224070
H         3.31287525329877    2.07768452359583    6.19742002810710
H         4.80164725602716    2.89980180375220    0.09979278511655
H         3.41098404478656    2.29319479237749    1.06376642658366
H         4.17931467477428    1.25194227830140   -0.15896084235110
H         6.84673436720240    0.73666623759348    0.38826978417632
H         7.75562350331294   -0.15918997692294    2.82384251837914
H         6.46019756432157   -0.51160940805382    5.03928064816095
H         6.53641646724562    1.20911836070964    5.48503734122815
H         4.95343505815402    0.40316118568657    5.26655464001882

