48
CSD_code = ZEZTIJ | q = 0 | S = 0 | Stoichiometry = C20H24N2OPt | MND = 4
Pt       13.98488101282383    0.46915690088022    1.71714032889909
O        15.52983192876002    0.61740738928416    0.29485079098422
N        14.62406624032954    2.14189849739839    2.55594125036382
N        13.26111429504945   -1.09739628511345    0.69936739636476
C        12.73595406310179    1.85197364089840    3.87311578568973
C        12.67603618587112    0.57319775200088    3.25579748102998
C        11.78515206212317   -0.32901782928405    3.83260585133793
C        10.95255281756254    0.03218591310874    4.88278133657322
C        10.97358108739638    1.31691785529145    5.40467897695187
C        11.88500577877594    2.22742334506935    4.91162726033882
C        13.83549192376742    2.66102637423937    3.42914810549335
C        15.24559195592426   -1.53519127846382   -0.69422307456448
C        15.96239411120744   -0.32139266488712   -0.44978121496316
C        17.21238830382581   -0.16352527483625   -1.11007448032487
C        17.73012827211753   -1.13735150621069   -1.91482449124153
C        17.02566244988470   -2.32718479785243   -2.14054168778757
C        15.80574144791857   -2.50576895317212   -1.54941801626029
C        13.94345909082708   -1.76475919401214   -0.18409363648426
C        15.85792247849417    2.78814846989794    2.19995796607955
C        17.02234861980207    1.99142080316579    2.80363048962239
C        18.37781899287532    2.38178076717005    2.22190396698421
C        18.79742531562667    3.81049954371156    2.56240078148928
C        20.20607108359049    4.11173960466778    2.06445458273841
C        11.88266559660388   -1.54336232999292    0.85310209073475
H        11.73612258519131   -1.34981890565124    3.48526483134071
H        10.27373632763261   -0.69974788870178    5.29826426531175
H        10.30279905459160    1.59095948036985    6.20565801003341
H        11.95489797150754    3.22109441093416    5.33219946994438
H        14.04464387951092    3.63187442404960    3.87763648997572
H        17.75003862245099    0.75711541332232   -0.93494616878331
H        18.69172047296539   -0.99135535042489   -2.38676046076280
H        17.44344226974538   -3.08848401662552   -2.78141994645974
H        15.24842999134559   -3.41670608692854   -1.72421303979537
H        13.43831186576095   -2.61861302442975   -0.64649815237914
H        15.86625932831628    3.82452401788142    2.55887545802665
H        15.95584722504940    2.77353437811802    1.11134027905345
H        17.02652163142987    2.12350521702706    3.88861403805901
H        16.83522386005853    0.93334488284323    2.59364499167489
H        19.13202517456775    1.69260080725571    2.60928077800006
H        18.34841579708517    2.26180021232021    1.13738793252289
H        18.75920476265664    3.94926022053817    3.64558529891138
H        18.10107284722461    4.51853854930092    2.10943556210366
H        20.26273300154304    3.98741196986133    0.98527385868394
H        20.92598386266755    3.43767856258804    2.52359094812083
H        20.48939524684591    5.13330684358558    2.30719622986237
H        11.83530105774652   -2.39981203640752    1.53087179381904
H        11.46590834552350   -1.85241851555381   -0.10962844824811
H        11.27447970430653   -0.73722030827839    1.25619814099247

