62
CSD_code = ZEZTOP | q = 0 | S = 0 | Stoichiometry = C24H31N3O3Pt | MND = 4
Pt       -0.67640034067492   10.10042284767430    5.62203776468028
O         0.90796503898824    9.84842760966394    4.28233240782650
O        -4.92150535651300   12.60888624166539    8.42777658877456
O        -5.75638409433268   11.16168251496368    9.78075309373585
N        -0.28640431003956    8.32381273707870    6.36803146791527
N        -1.08771551676932   11.83927761413386    4.67721816342485
N        -4.97209080710256   11.49413115387497    8.91404736990189
C        -2.29952089329201    8.65506355241887    7.46492315123975
C        -2.14062004384813   10.00072576359412    7.01989863501189
C        -3.02307027204224   10.91500185437418    7.58045266359397
C        -4.05640703008375   10.50784408993521    8.42012709726976
C        -4.24148309109979    9.17287671445309    8.77330104177072
C        -3.33546031122049    8.24759777289587    8.30933987285369
C        -1.22135185678372    7.79104709697380    7.07475688933374
C         1.12697482135877   12.14005045570880    3.65490443281573
C         1.60044145449069   10.79748699109093    3.78016688237520
C         2.89846133549412   10.51774457860320    3.27630695094572
C         3.68511526222817   11.49567420456529    2.73578768475069
C         3.21876213808553   12.81162697518253    2.63023349899317
C         1.95770203792792   13.11334272601716    3.06727256209994
C        -0.20593908027361   12.49676817477877    3.98999836420826
C         0.94418376454121    7.63040784141039    6.11593002553457
C         2.07319323923792    8.34048797823340    6.87424560526113
C         3.44761375563797    7.81482528986989    6.47600521598340
C         4.56861774078228    8.58515765303399    7.16960586051797
C         5.94343640922185    8.06681985585141    6.76649137074963
C        -2.44247891322306   12.36085214274252    4.65192285299062
C        -3.42510868806691   11.29115747004655    4.16608524445411
C        -4.87302174500846   11.67804318039019    4.45698657469570
C        -5.84933245247039   10.53417560476806    4.17830564903645
C        -5.81286384573679    9.45535979343661    5.25487592306284
H        -2.93358050022910   11.97629911387683    7.40591723697570
H        -5.07078613917997    8.89867358427049    9.40594033044112
H        -3.42134099949112    7.20889319795580    8.59220992720085
H        -1.14829073367596    6.76916834728751    7.44256482120241
H         3.25158188760842    9.49981886024261    3.35466926290606
H         4.67725692625926   11.25310461088847    2.38233540683257
H         3.84810791195372   13.57424412887432    2.19831472971643
H         1.58059547172716   14.12328062516998    2.97914343802730
H        -0.52529832597195   13.44982586157036    3.55817339707657
H         1.15983593932633    7.68777238315986    5.04500119598877
H         0.87348689909209    6.57888487126125    6.42175599796324
H         2.01164188262428    9.40915789369351    6.64584076785261
H         1.92062827993112    8.21770752735538    7.94937043698359
H         3.52348520869652    6.75429319860532    6.72932209863652
H         3.56712133416943    7.90742073217963    5.39480051731087
H         4.45086725478437    8.50022422770514    8.25230250918824
H         4.48919515474318    9.64281922276833    6.90910062175354
H         6.08792346136859    8.16524034160174    5.69288161580241
H         6.04974146016565    7.01693837082755    7.03129700362219
H         6.72634170868341    8.62841590467952    7.27026992683860
H        -2.50350446479533   13.23906673124227    3.99742311089131
H        -2.72569323366256   12.67870049820780    5.65628194040355
H        -3.29191673276440   11.13655564973011    3.09304052535511
H        -3.18134857033702   10.35075954735287    4.67309137420793
H        -5.14071948233210   12.53943841620747    3.84100757150093
H        -4.96853671956032   11.97897617864460    5.50180021770959
H        -6.86176238024031   10.93957718454842    4.12633739138596
H        -5.62046872202200   10.09094640886673    3.20673086751778
H        -6.09434092320682    9.87452425539791    6.21805068161664
H        -4.82041851794769    9.02159718695890    5.34926013039352
H        -6.51171268515680    8.65779645944849    5.01424404086133

