63
CSD_code = ZEZTUV | q = 0 | S = 0 | Stoichiometry = C25H34N2OPt | MND = 4
Pt        4.98812440410214    3.89892318032985    1.42863015407407
O         6.47835761542589    3.41341522879041    0.00883291158851
N         5.29262021970213    2.18438418349855    2.35820072573474
N         4.54991591710893    5.50056114234414    0.31083376349919
C         3.48114233470218    2.90254090020021    3.62076388439881
C         3.71269968392852    4.14640441620396    2.97334823354501
C         3.07010699242849    5.24701593886196    3.53438895760096
C         2.17764706378620    5.11353652732573    4.58841955680162
C         1.89201198780551    3.86837463886586    5.12999829671688
C         2.56528843990029    2.75888581009649    4.66248199775706
C         4.39027189481737    1.86583909725850    3.22033304182075
C         6.67793632119352    5.61832691071851   -0.90196768171373
C         7.12959871890248    4.28250506338038   -0.66247737278570
C         8.36248856778557    3.91172118368005   -1.26610042090079
C         9.11353481623626    4.79915139735573   -1.98108861007574
C         8.68405049487769    6.12102649460668   -2.19124341098672
C         7.47352504899040    6.49346162588808   -1.66817079320397
C         5.37833099826945    6.04672396208101   -0.52401301568372
C         6.39053187937118    1.29863252539657    2.08228033690563
C         7.62737429558798    1.81422659731606    2.83057122973885
C         8.86542517324010    0.94714145268524    2.61428792500949
C         9.44594099155014    1.06449548787033    1.20728116796500
C        10.72318000803543    0.24699119845757    1.05741722947113
C         3.17172281378047    5.94501408576627    0.24782473756017
C         2.26899197257837    4.79055791953034   -0.20696490164402
C         2.56701268715644    4.35391318465674   -1.63962735754292
C         1.76174310878022    3.12754527938312   -2.06760636486610
C         0.26384503583049    3.39446942753594   -2.16247764814303
C         9.53694388953596    7.06735881471796   -2.98215479440680
H         3.27702220449910    6.24618187337405    3.17395160238551
H         1.69508645146725    5.99274669188959    4.99244110572553
H         1.17433625951922    3.77592497936112    5.93192270435831
H         2.40241432027449    1.78674069704330    5.10707770413716
H         4.38744195994676    0.88887384355583    3.70333434816499
H         8.69802199800693    2.89571821726571   -1.11960731104051
H        10.05820664996674    4.48359231089530   -2.40309391170969
H         7.10610360412741    7.49860606512069   -1.83186183600113
H         5.02531696516664    6.92908462280202   -1.06786013654606
H         6.58626693921147    1.31501055624172    1.00821007265444
H         6.15637395903751    0.27449210997216    2.40338664322689
H         7.39163884455409    1.85065498041741    3.89799430801027
H         7.82574521060307    2.83573029409021    2.49589363091619
H         9.62998436786470    1.25317284677812    3.33272301658889
H         8.61957183534255   -0.09769978704868    2.82202411973358
H         9.66036759980380    2.11467444667929    0.99958968719583
H         8.71320676601464    0.72035572608687    0.47566201190231
H        11.47998534821015    0.58776089369032    1.76098910779078
H        11.12403190160003    0.34251704371949    0.05097562830108
H        10.52818198655734   -0.80615295443068    1.24990875365002
H         3.07102391216659    6.78545926949319   -0.45190683878078
H         2.84298930781057    6.27212024589774    1.23441254284345
H         2.43223538334201    3.94296083499523    0.47119935487614
H         1.23134034165985    5.11289819804852   -0.11629107886542
H         3.63012938585627    4.11037331528785   -1.71687501728311
H         2.36069576552763    5.17975108485330   -2.32602660634293
H         2.12367722193714    2.79933529177061   -3.04477918621069
H         1.94315877955743    2.31707250633034   -1.35855969016961
H         0.06798743571321    4.23564768739088   -2.82431874473424
H        -0.15675643379114    3.61801407077761   -1.18563963676516
H        -0.25003490099959    2.52173442319992   -2.55893749467400
H         9.05360817075369    8.03633017359611   -3.08008511869148
H         9.72444312261066    6.66989509985121   -3.97946912089826
H        10.50123396063481    7.20907866612409   -2.49418639204409

