43
CSD_code = ZEZWUY | q = 0 | S = 0 | Stoichiometry = C9H27Cl3IrP3 | MND = 6
Ir        8.44656013898679   10.42923059873331    9.19748518626944
Cl       10.54597099805631    9.40514993720139    9.57616952191542
Cl        9.19163078517593   11.24550681979070    7.10803578708844
Cl        9.17786507004201   12.41632947587835   10.25562031677882
P         7.84536854738791    9.98165518559843   11.41729351198509
P         6.53574401260883   11.56398933366193    8.45798777130399
P         8.14492014012911    8.31716262172236    8.23014070468433
C         6.58185618575761    8.68178914022870   11.74627690160421
H         6.45756284588131    8.54904017580611   12.81985151450308
H         5.63127167059125    8.97817906863880   11.30812885891568
H         6.89102174706139    7.73833516865238   11.30506107990982
C         9.22312148665555    9.43929283139048   12.47471797447203
H         8.87944054353783    9.31312292032487   13.50147759227589
H         9.63790287240632    8.50993254690863   12.08951722561456
H         9.99842632767972   10.20248820876246   12.42727720576686
C         7.15852397676801   11.33856867613662   12.43662285742688
H         6.88418000758692   10.94590745177994   13.41552219659345
H         7.91693495925675   12.11089117649875   12.53825155041256
H         6.28416031295347   11.77480099897316   11.95961328156653
C         6.58334859332907   13.36654772283639    8.70256475670334
H         5.68703209530632   13.82303514849396    8.28242403096575
H         6.67059730967931   13.59213209944930    9.76339816895050
H         7.47150196765492   13.74746837125484    8.20103205393825
C         4.91240157912917   11.12745210472231    9.21182836143649
H         4.13143817449243   11.77117373973467    8.80998856522123
H         4.67371164043575   10.09014002249243    8.98699022731043
H         4.95609711340218   11.25287081114663   10.29038181405710
C         6.08267830079705   11.48543916014332    6.68576923608829
H         5.13013273589682   11.99387806565719    6.53811657157949
H         6.86482649627384   11.97298188063755    6.10903916738035
H         6.00283808770787   10.45407516222333    6.35134894498821
C         6.42673375528628    7.75039928522430    7.88266442771432
H         6.44682222745393    6.78484812050956    7.37971140656169
H         5.87844685144400    7.65752925875200    8.81793877065876
H         5.91888720710844    8.47159332793772    7.24789325911183
C         8.78466112681606    6.83549085176031    9.09674467330697
H         8.50661300899858    5.94645856406765    8.53111332709996
H         9.86668186965144    6.91590932270524    9.16462646556290
H         8.37886476230638    6.76789418703083   10.10303698252551
C         8.93778657825714    8.11446134571901    6.60542212334481
H         8.81024745349624    7.09035008121848    6.25476945025465
H         8.50966403984014    8.82108970082669    5.89752634062344
H         9.99562439671328    8.34520932876949    6.71941983552947

