24
CSD_code = ZEZYIM | q = 0 | S = 0 | Stoichiometry = C10H10Cl2OTi | MND = 8
Ti        3.05735058136774    2.71351395791223    1.51222940932800
Cl        1.71774412684936    4.33510247422699    2.03673089685015
O         4.03558607726250    2.71352427657817    2.86952770550191
C         3.87708476442959    2.71347900411921    4.24375047413410
C         2.93966156148907    3.43338648037807   -0.71333071089292
C         1.84935981139333    4.13364555984384   -1.26537229408403
C         0.80548031820497    3.41677335880034   -1.79412705033834
C         4.93628297384709    2.71351074845062    0.16653911967931
C         4.16969090247699    3.86612360831756   -0.11546904694926
H         1.85041200549478    5.21571111384513   -1.28013573214001
H        -0.03575963907712    3.93668101210650   -2.22769773872470
H         4.52769723342816    4.88864431784937   -0.08601517140288
H         5.96561630401919    2.71351274000558    0.50972200656809
H         3.31382246123353    3.61177433635694    4.54664036418852
H         4.85687883093415    2.71349136832593    4.73990781753363
Cl        1.71778945671155    1.09189514855593    2.03675971442480
H         3.31387383650103    1.81513296683483    4.54658412412066
C         2.93965517616213    1.99362656498609   -0.71331389598050
C         4.16968748537214    1.56089503321999   -0.11545093576921
C         1.84933938753902    1.29336155845346   -1.26532215865176
C         0.80546212352831    2.01022803641094   -1.79409110658927
H        -0.03578828575119    1.49031659186958   -2.22763630011839
H         1.85037950704324    0.21129525332857   -1.28004659968503
H         4.52769299954041    0.53837448922386   -0.08598289100279

