49
CSD_code = ZIBBOE | q = 0 | S = 0 | Stoichiometry = C24H18N2O2PdS2 | MND = 4
Pd       11.05434465349875    5.08641167725680    2.28019173580472
S         9.94993920152385    3.37547696624639    3.43705450883126
O         8.70025717381187    4.32876081029720    1.39509086177996
C         8.67242673261085    3.45775995094262    2.26242044991624
C         7.57627698737160    2.47805958241225    2.37348138508158
C         7.57158050760154    1.47419091261466    3.33810105897122
H         8.39685839978164    1.40327957579837    4.03039888394913
C         6.52059833645383    0.57921918817343    3.39933542459699
H         6.52084203879713   -0.19936259317349    4.14810155264570
C         5.46863212864555    0.67588445711515    2.50185550384060
H         4.64964071648868   -0.02701907513609    2.55249598500759
C         5.46836093542981    1.67168680139324    1.53774024645860
H         4.64952145999486    1.74537362042196    0.83679307310047
C         6.51594800147278    2.56904592830794    1.47181671302117
H         6.53801211829695    3.35094157606109    0.72737857967609
N        11.94488033274913    6.64786809240505    1.29985147507798
C        11.60174221019380    7.85344361095505    1.79124122369835
C        12.27325046837120    9.00748916730621    1.38921603696477
H        12.01065489496560    9.96571793611363    1.80716834534175
C        13.29745771417313    8.91149202186996    0.46463291320978
H        13.83098650498041    9.79448769054941    0.14763895699328
C        13.62583384903671    7.66251105553803   -0.04214131841782
H        14.41422914100016    7.54351486848327   -0.76751043287874
C        12.92346971622538    6.55706832213150    0.40718168427343
H        13.14733012425729    5.56187429007317    0.03699941403500
N        10.16346620388059    6.64774388975757    3.26021698182478
C        10.50607352543177    7.85334331536443    2.76858578145381
C         9.83408407638432    9.00716587334630    3.17043931487720
H        10.09624240002076    9.96543572957387    2.75231092146738
C         8.80991609757482    8.91086176211316    4.09504481217670
H         8.27593546651623    9.79365170203106    4.41183914329948
C         8.48212699465829    7.66183172158761    4.60206625631993
H         7.69376504132457    7.54256657476908    5.32742075317126
C         9.18498942049932    6.55665545366272    4.15294390186701
H         8.96161959128424    5.56143191097876    4.52333196292613
S        12.15920818052511    3.37622243171692    1.12216028335484
O        13.40828597409768    4.32839591116971    3.16502116698639
C        13.43634926897314    3.45781092212733    2.29726579959746
C        14.53212270105494    2.47765485171362    2.18660040370524
C        14.53687247871505    1.47391459213358    1.22180769841457
H        13.71166786622931    1.40313798792044    0.52936265076081
C        15.58765997277507    0.57869926672014    1.16076570854926
H        15.58731871617956   -0.19997429455837    0.41204478722508
C        16.63937176659172    0.67496876334569    2.05859104141856
H        17.45812572084012   -0.02823094620009    2.00818201567353
C        16.63963033814530    1.67070907198026    3.02282236047426
H        17.45822654468438    1.74406598899590    3.72403637369256
C        15.59219700838383    2.56826976298922    3.08861425601831
H        15.57007029733924    3.34999132268013    3.83309136366173

