50
CSD_code = ZIBCOF | q = 0 | S = 0 | Stoichiometry = C20H19CdN5O3S2 | MND = 6
Cd        8.16584915002852   10.15403154112286   10.98298450107279
S         7.38274622992824    9.30310513762076    8.75099618962347
S         9.16095186635726   10.19515505721765   13.29021019116507
N        10.22970370294520   15.39958053153203   11.24140555702976
O        10.44168283278750    9.76874500516589   11.11441416784552
O         6.97139442111973    8.11296666338149   10.98294422382552
O         5.83044576205382   10.63799842926493   12.01720733665270
N         8.59699880952677   12.35924180291298   10.42610564823450
N         8.78695299851874   14.93428010070044   13.07368966246668
N         7.35456224904187   13.13961843121536   13.19531352855128
H         7.16116245425509   13.42835892580964   14.13929291082346
H         7.07465937566178   12.21782289578825   12.89227130218965
C         6.84291190096023    8.02539323164435    9.74934614288622
C         5.86562282330350    5.77156124092042    9.94538096626975
H         6.06797298142956    5.83673382021492   11.00437151705332
C         5.37946098272722    5.64941629369754    7.22019724417238
H         5.19021535673178    5.59814407965240    6.15815332918131
N        10.10103529785994   13.70341463433867    9.50115995400295
H        10.77266796350018   14.06277821290361    8.84296674390217
C         8.81877648857580   13.41982131191237   11.27508749682055
C        14.31171854625296    9.28487164441757   14.22799220142413
H        15.27283975763569    9.13221305454302   14.69706412339361
C        12.94168955005078    9.28897750630228   12.26185940167677
H        12.80999087061251    9.14151086238903   11.20007872250610
C        11.83946103942773    9.67347490484211   13.02663992156734
C         9.77191032606016   14.27440662364575   10.69807747161819
C        11.98904923134377    9.86453043617524   14.39847241684264
H        11.13305836832690   10.16133582716425   14.98539953380245
C         9.37655819626793   12.56188420097992    9.39822221708465
H         9.43389022950792   11.90385565952100    8.54956506952673
C         6.21406527539563    6.84782456686531    9.12800744056467
C         5.03684092784583    4.58281151934841    8.03711134767498
H         4.58053931694233    3.70133441930102    7.61099271655683
C         5.28147932025000    4.64554723585795    9.39996262513007
H         5.01642536337864    3.81423178754059   10.03656650309665
C        10.54505081774896    9.85591929814523   12.34967055653464
C         8.31122197257355   13.80511420328301   12.53705379659656
C         5.96660200133181    6.77785188097372    7.75881753678738
H         6.24096039905225    7.61201268334607    7.13106516892097
C        13.22134542592966    9.67074910901477   14.99216664344187
H        13.33321718549293    9.81876766517947   16.05606858967689
C         4.74789871129275   10.97665760010369   11.16558833860936
H         4.92087544719861   11.99691867421989   10.82585108765680
H         3.80168678373425   10.93227067025321   11.71293818930596
H         4.69719714093191   10.31380409975030   10.29672844010270
C        14.17016145094898    9.09551621398559   12.86220426377060
H        15.01898519298451    8.79253288964187   12.26685402904679
C         9.68911126271601   15.64483100003644   12.42155295082934
H        10.02480546683981   16.54552039582398   12.91690895401474
H         5.70869077456051    9.72285602035009   12.31092112845258

