37
CSD_code = ZIBFIB | q = 0 | S = 0 | Stoichiometry = C15H11ClN3O5ReS | MND = 6
C         1.88687260219382    6.50428832968144    1.29008214633804
C         1.25207704184578    9.02776787876920    2.45159183071955
C         1.73715249934030    6.73229793918830    4.08583036021564
C         4.10033445742082    8.58427822784169    0.01096575983272
H         3.25007495143453    8.13415855025615   -0.48479178109611
C         5.18259357804692    9.03927600403979   -0.72302081177386
H         5.18279958996925    8.93899718099847   -1.79621487000221
C         6.25882157027111    9.61173083948423   -0.05640398502603
H         7.12035166101188    9.96729160348988   -0.60002415815416
C         6.20098109782956    9.71342692082765    1.31883337575433
H         7.00962639326667   10.14842337561740    1.88545074352979
C         5.07712098536653    9.22593771232260    1.98828463902479
C         4.94654275846504    9.28199326810132    3.42212557660284
H         5.74238247458832    9.73262238473507    4.01036475812332
C         3.75106808001045    8.80154096976764    5.35363232547564
C         2.53919350063975    9.18847016525463    5.93313105256825
H         1.73048243520776    9.51617581464658    5.29526502580493
C         2.39673314895393    9.15766172232488    7.30595538302239
H         1.48389967235211    9.47056427486741    7.78589665046819
C         3.44958254010720    8.72287514284203    8.08851666860031
C         4.64548380962957    8.31942627474041    7.53148131141065
H         5.43713268927353    7.98357567676879    8.18181154286146
C         4.80587580608089    8.36709475034193    6.15904919266725
H         5.72085873826775    8.01935499322172    5.70221286661779
Cl        4.45915484239991    6.16133393384199    2.83727822832982
N         4.03839817918490    8.66412426582441    1.33467834789437
N         3.87420723328049    8.81560311252759    3.96124556332858
N         2.54275906178283    7.11619587083344   10.00589810158903
H         1.61160721870707    7.15580604874422   10.38594176549170
H         3.12718267942456    6.47095832492664   10.51099781947324
O         1.56579332288681    5.76623094518325    0.47984759425230
O         0.45109059897661    9.84346170683495    2.34201347813015
O         1.33231034088555    6.15190823140337    4.98159464725867
O         2.27739441446764    9.61306028917081   10.26764157227097
O         4.52991722609332    8.60365895851005   10.48231738375643
Re        2.64605940976028    7.68747498031279    2.64497584808656
S         3.24048339057995    8.63505333176076    9.85704404655532

