71
CSD_code = ZIBHUQ | q = 0 | S = 0 | Stoichiometry = C31H28CdN8OS2 | MND = 7
Cd        5.58709738529344    6.04982014512854    4.14286110441910
S         8.89256035891006    9.08669513207863    4.07545104921690
S         3.07585117887966    2.39625085292037    4.67558067623733
O         7.60397602093862    4.43865765471615    5.04233001898158
H         7.17830378248232    3.76351721133097    5.58609086180404
N         7.29976362709123    6.94233513087844    3.36829000521391
N         4.71496910347485    4.52669663846112    5.31592692637849
N         5.84358265439322    7.42451518523592    6.02944014472383
N         4.84549656522627    8.50267754375875    3.78074381548786
N         4.29885530526636    8.81521094743974    2.64983209600447
N         2.33360610266274    6.77203936809539    3.64146025725433
N         3.23491762016502    5.98789221562215    3.14145126910261
N         5.39326450212753    4.60622573813367    2.35175085811207
C         7.97340558420752    7.85565098600619    3.67919051341167
C         4.01353501991676    3.62374471609447    5.03385705696058
C         8.89990908818506    4.69359734389736    5.54068389253564
H         9.54040774145091    3.81001168360179    5.44079166171909
H         8.87881632952439    5.00525745368986    6.59008705348411
H         9.30992019543085    5.50471914070453    4.94137255635107
C         6.44575133664642    6.87249350260884    7.07070346731463
H         6.28270208249036    5.80833590116223    7.19055609321913
C         7.21471986427846    7.59374035854878    7.97060486262237
H         7.69160047895522    7.10249418120391    8.80431634905256
C         7.35673119951968    8.95842116712200    7.76807743916592
H         7.96220783992747    9.55570250524339    8.43329644120486
C         6.71029664845339    9.54557698200292    6.69696663049491
H         6.81543280032277   10.60163437417879    6.51220820454467
C         5.95941330240704    8.74312692642032    5.83420993206908
C         5.23573778843125    9.30853434925212    4.69452781578256
C         3.07547721016712    8.61606610134933    2.32773316189539
C         2.17234880889846    8.01082040754659    3.36117997464278
C         3.04478063040183    5.04030382144903    2.30208893607030
C         4.18106372782850    4.17364769705785    1.98614828101555
C         4.01362636104050    2.95893572101829    1.31625421062164
H         3.03042925092376    2.61029924117137    1.04738028796917
C         5.12597039712217    2.18659391397715    1.03959836467584
H         5.01721891159326    1.23566311646716    0.53936083254302
C         6.37689724533596    2.64999403323918    1.41898217297309
H         7.26814835304423    2.07822337586690    1.21446743506600
C         6.45673548111512    3.86841409945327    2.07606446448062
H         7.40540141413196    4.28157891229359    2.39489088998281
C         2.61996003797184    8.84430119929243    0.96700610353762
C         1.28145739329912    8.63988275869174    0.62635679585561
H         0.57758411874278    8.32002838406392    1.38187272876284
C         0.85400462961163    8.85286680632121   -0.67012671654121
H        -0.18327734807339    8.69347343877618   -0.92519207925680
C         1.75094144105481    9.26996723631233   -1.64033725814333
H         1.41291868220809    9.43624728007663   -2.65222538738769
C         3.08281596655484    9.47352239551865   -1.30991862173834
H         3.78213299141439    9.79710325078029   -2.06641349865508
C         3.51794499978716    9.26423107550146   -0.01731770411658
H         4.55144594283559    9.41352352470141    0.25422795336497
C         1.23674876445820    8.82505315760339    4.11846603199626
C         0.50875381406539    8.26781600404938    5.17252880106195
H         0.65638109045613    7.22569261409953    5.40985216783090
C        -0.37395263843445    9.04539318817876    5.89371910892912
H        -0.93302984649701    8.60893203857484    6.70795227870816
C        -0.54562533164545   10.38481257080118    5.57593341144880
H        -1.23813538054421   10.99050734862526    6.14108973678726
C         0.17251425648115   10.94514790586576    4.53187947304592
H         0.04015517615701   11.98764692385344    4.28265919204848
C         1.05938190280515   10.17399407002632    3.80533228293988
H         1.61380541816095   10.61308412769975    2.98775019185514
C         4.97232349473172   10.78592883261013    4.64294058473182
H         4.26630697459049   11.01216556288108    3.84670668333695
H         5.90357671900199   11.31202995741054    4.43380316119158
H         4.57190387873861   11.14449811481042    5.58902050305864
C         1.71685278205605    4.79306845320007    1.64680403391910
H         1.03345812055915    5.61045387384806    1.86665471057320
H         1.28658772882991    3.87228358058194    2.03986654669760
H         1.82533492182965    4.69832854882226    0.56820071933233

