13
CSD_code = ZIBKUS | q = 0 | S = 0 | Stoichiometry = C4H6O2Pt | MND = 4
C        10.42118921652749    2.08744672120740   11.66259277241757
C        11.29635487761295    2.27495260748615    8.61437879491909
C         8.78098144657306    2.24073614717411    8.05722139472624
H         8.64873249906593    1.20841568669083    7.70001540522511
H         9.24789362515300    2.79123956091492    7.23621759686298
H         7.77931136118477    2.65813018037821    8.17767060361761
C         8.00260024884523    1.91265416841316   10.78950995511338
H         8.00003095981335    1.39931842117287   11.75470728742842
H         7.26310717399460    1.40355554657719   10.16760871461748
H         7.61075853068921    2.92362510110021   10.97703938307407
O        10.49378224661424    2.22180007545711   12.78961597129728
O        11.97116425772690    2.18413325415142    7.70339717458766
Pt        9.81739355619844    2.13529252927606    9.83662494611278

