40
CSD_code = ZIBLUR | q = 0 | S = 0 | Stoichiometry = C15H17Br2N5Zn | MND = 4
Zn        8.11817548501864    3.74019993036186    1.47499392161345
Br        8.05141407809863    5.91801726194453    2.33549447128604
Br        6.98531985379799    2.29567722166629   -0.06591959658499
N         7.63035274581371    2.64914370329851    3.30048913481586
N         8.03252011021507    1.39388876155210    3.48574742629764
N        10.01555340394228    3.86660751228070    0.40535461088690
N        10.76020361867062    2.78594514961320    0.18358473726144
N         9.83755156035278    1.72041680176311    2.04359819983240
C         6.89791579306954    2.97872959471346    4.35032642695236
C         6.82093387158372    1.90303137867741    5.23676924837217
C         7.56465600977227    0.90565210937745    4.64578502327117
C        10.62725621234515    4.88315223709980   -0.17748351446868
C        11.79843332692269    4.44485001190111   -0.79777778082008
C        11.84837283887970    3.09267006415357   -0.54063254055004
C         8.86335432287771    0.75436762310459    2.49682304835485
C        10.34427917015982    1.50916630864672    0.70711741874888
C        10.87934546513723    2.02857932217770    3.03550498284259
C        11.80948509591346    0.87764958750577    3.31460351996362
C        11.51227510767588   -0.04814421043385    4.30880207234289
C        12.33457728226300   -1.14037620242429    4.52379260280804
C        13.46783663543381   -1.31922908246828    3.74912910937015
C        13.78678810492805   -0.39046878676974    2.77342528365102
C        12.96354696283798    0.70113589444613    2.55898186463083
H         6.46901378580825    3.95816971741323    4.43359346500077
H         6.29960528716100    1.86363167497922    6.16990174872556
H         7.77662464346675   -0.09568485964183    4.96317292711499
H        10.21762739473083    5.87276761839807   -0.12428726428305
H        12.50188835314635    5.03130392753917   -1.35024858324302
H        12.56408412269324    2.34826199333787   -0.82678298998493
H         8.24015636307208    0.45831980187917    1.64333322657268
H         9.30815011233298   -0.14639154618211    2.94644308993825
H        11.20085235604019    0.81949514926736    0.66179881537870
H         9.53264748460816    1.11391333676576    0.08307366577407
H        11.44095304349830    2.88755346495252    2.66115073321941
H        10.37364969475954    2.33834181558349    3.95290310235746
H        10.64599005982045    0.10147673703051    4.93862605560708
H        12.09272487938887   -1.84985099862744    5.30094428110870
H        14.10867846376202   -2.17155437852898    3.91561150118887
H        14.68130660444767   -0.51298310660435    2.18116954599197
H        13.23530029369467    1.43846745887617    1.81598701007266

