126
CSD_code = ZIBNIJ | q = 1 | S = 0 | Stoichiometry = C57H63N2P2PtSe(1+) | MND = 4
Pt        8.12655326010698    5.50048677156143    4.78721428344082
Se        5.71153956666311    4.94704473316860    4.40157918051995
P         7.35363128550957    7.15972356396809    6.23597841971732
P        10.38933684874949    5.76143560156364    5.31977544542658
N         9.22243208707927    4.68419044539840    0.89828051079907
N         8.76943396919672    1.62126468543720    3.06063877456335
C         9.14459115491822    6.14726091776754    0.95918824874623
H         8.91770092551665    6.38436186390337    2.00798532535018
C         8.12425321455239   -0.37166153180317    1.74550998604842
H         7.94778137253255   -1.02237483659381    2.59735630619590
H         8.43936075948933   -0.98921986123271    0.90880315840179
H         7.18851560117328    0.11495697802827    1.47862138724896
C         5.58003682223877    3.59105228332232    1.83118881812944
H         5.97881380126390    2.73798043724464    2.35906380601027
C         4.84050366365312    5.87535501320908    1.83616621255626
H         4.66551219170644    6.79855450706046    2.37025375440726
C         5.39670645912058    4.79179459423536    2.50437336985346
C         5.22388942318757    3.48288345378964    0.49948494193255
H         5.34730982872072    2.54010568542581   -0.01446969975612
C         4.49330711363678    5.76512138575499    0.50141228778727
H         4.05883352187039    6.61069997911170   -0.01144464124945
C         4.68496895111043    4.56919060074167   -0.17077547456274
H         4.40042764406243    4.47891729466502   -1.20842334968625
C         8.01174927360212    6.68050885942215    0.08707261909380
H         8.20470351804091    6.50643561558745   -0.96853042330331
H         7.91362688644364    7.75185440733291    0.23876451066538
H         7.07124532597725    6.20469795709724    0.35380012950235
C         9.17980319041442    1.85253180530344    5.48680546008734
H        10.24895346499034    1.80962159149750    5.29388011488472
H         8.97928155485412    1.38545570077991    6.44698354845993
H         8.87240314882871    2.89966820000051    5.53991264424671
C        10.47785330845501    6.80029970444198    0.60013079565878
H        11.28458859649514    6.41271687891625    1.21844108334871
H        10.41051464632182    7.87079926155440    0.77306197022378
H        10.73307136020919    6.64319891804907   -0.44466902329187
C         9.55847965727617    4.03084214488243   -0.36436502994804
H         9.68586540864926    4.82875262047024   -1.09950343693098
C         8.41353487773353    3.14022180949715   -0.84116941367140
H         8.17730628355754    2.37141606076134   -0.11145765720574
H         8.68105724806189    2.66074524670379   -1.77872554970411
H         7.51909099653463    3.73808443101282   -0.99927023619071
C         8.92030378507418    4.03093177381940    1.99927582013063
C         8.75544074878362    2.91330159284538    2.83145811054720
C        10.52957918539038    0.01621711470504    2.43749733345139
H        11.26114910784278    0.77712721915390    2.70520252484783
H        10.91557871572913   -0.55945471451757    1.60075032886376
H        10.40835774819959   -0.65695386865445    3.28176501483859
C         8.55712627928313    4.19895740061213    3.33783095224639
C         8.39914074380308    1.12922664485111    4.39484372799534
H         8.67225884348608    0.07167489365621    4.41432269710079
C         9.20302036731659    0.66781349106633    2.04309303564682
H         9.36978625074245    1.24968562044259    1.13258158027670
C        10.88833135122122    3.28560149808433   -0.24547480971163
H        11.69607060756662    3.98958982863296   -0.05773427163344
H        11.10304331223270    2.75745926672437   -1.17026811901944
H        10.86626203817586    2.56744845986098    0.56951997909313
C         6.89842426963049    1.26009118382065    4.63625708558009
H         6.60831211328702    2.30946935226828    4.66246402684348
H         6.64220013907710    0.81376106061077    5.59305891970236
H         6.32789205405560    0.75301045988606    3.86246007014606
C         6.81187846953562    8.54791974340994    5.19280834504304
C         9.77946561635285    5.07119741827721    7.87999072657808
H         9.04907989358924    4.44682911493276    7.37496651751605
C         6.72021393276924    8.34133552922239    3.81950972129850
H         6.96947593980997    7.36476135224457    3.40692307116168
C         8.08956883712269    7.79758554445966    8.87251175747198
H         7.36119666555806    7.06013959524160    9.17891546488000
C         5.85813169246787    5.30403462908997    7.59438486307687
H         6.67699774382106    4.64348980146203    7.32527419823549
C         9.24590539702086    8.99398855776980    7.14012214351625
H         9.41597119517621    9.19393379837561    6.09097420077372
C         8.80089309264148    8.50307464820102    9.82635101419504
H         8.62276834424928    8.31285892474781   10.87402800793767
C        11.87108809444972    4.24145764652446    3.55216714195884
H        11.41919570876773    4.88866367413336    2.81330833011856
C        10.60308129885581    5.89533728949587    7.11672027573939
C        12.57560735663953    7.37205485931532    4.58444886027916
H        13.20721264062452    6.61629927652316    5.03111412694662
C         9.89689245993340    5.04893960641939    9.25559961543900
H         9.26064951166989    4.40523833326510    9.84412473148694
C         8.29859005450115    8.04691151889254    7.52101290088060
C         4.82348313721015    7.47335577757417    7.47058823281655
H         4.82018101113855    8.49522491647953    7.12083090987699
C        12.15228486385896    3.61302475185756    5.85485970544469
H        11.92559520750855    3.75210732828978    6.90174010183476
C        10.83378230673277    5.86039914828094    9.87615041743986
H        10.93052216259104    5.84712824574545   10.95082188422279
C        11.64073997306171    6.69509641617373    9.12096739648334
H        12.36142781971427    7.33380973783020    9.60850177736030
C        10.95050148154309    9.28735017404860    3.39114677787532
H        10.31853026355580   10.02955027043887    2.92588453741252
C        11.53172315257167    6.71651086823810    7.74131819461125
H        12.15891613644054    7.37406744727490    7.15742890803612
C         6.50638938293186    9.80181917457309    5.71656978740636
H         6.60937487078261    9.98609527971925    6.77718212074321
C         5.88423455165681    6.62986168179278    7.16682477760354
C        10.38764142460169    8.16132841729229    3.96371198613269
H         9.31397428489395    8.00934825530704    3.94158510194129
C         9.73024947989518    9.45438593243907    9.44217409683199
H        10.27663064955623   10.00959799609506   10.18917640665248
C         4.79113479929347    4.83050897436248    8.33322927393990
H         4.77316947418437    3.80123668048051    8.65881811850820
C         6.30713610895915    9.36058480497983    2.98154937733814
H         6.23324106129993    9.18848207336398    1.91752403313804
C        13.13413920497562    8.50000136570939    4.01123366104587
H        14.20543355316041    8.63272626017576    4.02400040766669
C        12.32494353275366    9.45891672804002    3.42040282008146
H        12.76867663120012   10.33708179423706    2.97698027819028
C        11.19321285586894    7.20618809714605    4.57342657784117
C         9.95464159082799    9.69507847016236    8.09622871828454
H        10.67879119151310   10.43558295959004    7.79040358114052
C         3.75536171625728    6.99242439402485    8.20731238218428
H         2.92784997517059    7.64706673574535    8.43680312755873
C         6.08908822966113   10.81752812772858    4.87590165319046
H         5.84555497571939   11.78573605314367    5.28701956709018
C        12.74597062798767    3.24365757099529    3.16922671473362
H        12.98567954172344    3.10484889052129    2.12531354009354
C        13.02900401868554    2.61387402632486    5.46653284430152
H        13.48303161793985    1.98167762160293    6.21448060881397
C        11.56917876847464    4.43654637334180    4.89805200037996
C         3.73980814559993    5.67793135362031    8.64380545552183
H         2.90160194338224    5.31031965293171    9.21593518328153
C        13.32599634039979    2.42554157031986    4.12726824622060
H        14.01131925883107    1.64672751441564    3.82928460500182
C         5.98405448542006   10.59882942159475    3.51104130319925
H         5.65528837146718   11.39575574766741    2.86137962135429

