31
CSD_code = ZIBYUH | q = 0 | S = 0 | Stoichiometry = C13H11AuF5N | MND = 2
Au       13.15421504708319    7.88838805874537    4.97922872532525
C        14.60668596839377    7.71330566415791    3.59566522522248
C        14.55034959275428    6.78581260064797    2.56184868343643
C        15.54180607083326    6.62949978330951    1.60137686185615
C        16.67023584916518    7.43753503050549    1.65451103985405
C        16.77766203476207    8.38266394056022    2.66656282875555
C        15.75553278591164    8.49573895392636    3.60080266874467
C        11.77629627060403    8.02000152800069    6.27493500742954
C         9.87669982168399    8.11615636628536    7.97753794322988
H        10.10400082100676    7.39893939445570    8.77680691019945
C         8.56673097807702    7.72211428365286    7.28143942207649
H         7.78939174590982    7.65719945691713    8.04462162844644
H         8.67797652372066    6.73705109525205    6.82395219790971
C         8.17123861941696    8.75291050584117    6.22801356544382
H         8.92026209151664    8.77096253251450    5.43278077125070
H         7.21936135160937    8.46298844154650    5.78112121840434
C         8.05623239060205   10.14015750200812    6.85263569760811
H         7.77827976043510   10.86717629197984    6.08893898484332
H         7.27061884030848   10.13451768512029    7.61164173207136
C         9.38076074150773   10.54440279966110    7.49295099332768
H         9.29089585427212   11.53122501226369    7.94880086094187
H        10.15529347983607   10.60192103185717    6.72465075336961
C         9.79115118673621    9.53351727112762    8.55990304040747
H        10.75458556476899    9.81004158580068    8.99268278750588
H         9.04978732340956    9.52056121850472    9.36064114797965
F        13.46846308808130    5.98015496643319    2.47606828600899
F        15.42170123862239    5.71102356665530    0.62962373451889
F        17.64272348246507    7.30681397837159    0.74151003240524
F        17.86190899726158    9.17171327461674    2.73193890308653
F        15.89824568224339    9.42672589872131    4.56968626685495
N        10.93150679700105    8.04348028056027    7.06422208148723

