43
CSD_code = ZIBYAM | q = 0 | S = 0 | Stoichiometry = C17H16MoN4O4S | MND = 6
Mo        1.04712767966135    3.75183116142231   11.13376218894798
S         0.96129270529587    4.92488653750979   13.24780343119488
O        -1.70211379689095    0.84824898417314    5.97854797343522
O         0.18391021605623    3.32757194293162    9.55745062764451
O         1.73184957992141    2.38229540007792   11.73415936145099
O         2.12294635761211    4.88851047655036   10.61205297866786
N        -0.85665143770640    3.05913912308831   11.97226317604261
N        -1.04252186065113    3.13183723956719   13.30915123646847
N        -0.37530840715672    3.90040922708051   15.33611481343908
N        -0.69005984647130    5.63173290236807   10.66386153146683
C        -0.71238391851374    2.48378223242831    9.10828797298649
C        -0.71925726534582    2.10999370192355    7.76102668266125
H         0.04706289366086    2.51909358304148    7.11425478479447
C        -1.67337696004320    1.23122242583227    7.27434521525874
C        -2.65186037637479    0.71435091876603    8.13377160147224
H        -3.38456244151828    0.03517496788686    7.73035522029685
C        -2.65391402523695    1.07228292997943    9.45749219873867
H        -3.40453036545711    0.66778648575155   10.12001306944863
C        -1.69488509995005    1.95304807447538    9.98409407513646
C        -1.70505007817928    2.28272682490049   11.36936305334389
H        -2.47162260172568    1.81671526171633   11.99013405528050
C        -0.22942963977817    3.86882979036783   13.99780996250536
C        -1.49978425371282    3.19183939665953   15.91432795172799
H        -2.43821463917104    3.67039015451013   15.62980405692413
H        -1.39887260126039    3.18605934025011   16.99641527072766
H        -1.51530595596721    2.16688406938815   15.54184877290220
C         0.58173838621909    4.47897238081420   16.19576365767248
C         1.93380009024274    4.18407580441147   16.04898288551610
H         2.25444950197201    3.52646837352544   15.25447244681590
C         2.85623222012663    4.73369927285773   16.91918061877067
H         3.90378326315182    4.50308561949791   16.79921106365681
C         2.44183865178387    5.56612409022671   17.94612152982307
H         3.16558578455609    5.99116604082011   18.62506900384561
C         1.09573937184709    5.84966442073981   18.10058506001936
H         0.76666298153989    6.49853130303252   18.89874284401667
C         0.16576041602275    5.30975371690104   17.23050264632069
H        -0.88222929960570    5.54341147036559   17.34309236551241
C        -0.05958480808302    6.51624411091873   10.29273583902344
C         0.75194577280153    7.60237497532487    9.85253424081487
H         0.62949259252993    8.45485717833717   10.51882102416551
H         0.49415310479967    7.88219297819225    8.83254623149273
H         1.78588787669226    7.24973517057587    9.89088552765593
H        -0.97053976767910    1.25219994080074    5.49474175190947

