48
CSD_code = ZICTEK | q = 1 | S = 0 | Stoichiometry = C19H25N2OW(1+) | MND = 9
W         0.78741857400220    9.44138358433776    3.74224066885165
O         3.33805202108106    8.25561187404033    4.61636653748914
N         2.35023858263487    8.72225966272219    4.17959341280332
N         1.89169564750599   11.18179552648961    3.54075921809457
C        -1.09209487570325    8.45328996689789    4.71729194601009
C        -0.19513080822796    8.88299527443058    5.74902709271457
C        -0.07141072812784   10.30786271260666    5.66074331344132
C        -0.93736043879958   10.75961168951153    4.59547001194593
C        -1.56470599821435    9.62513786054191    4.02657378531760
C        -1.70034274029657    7.08516379374759    4.63582708153376
C         0.36590696038182    8.01943768368116    6.83665509144579
C         0.59688433383634   11.17592258334852    6.68784106472580
C        -1.26713447876913   12.19253611878773    4.29956377767254
C        -2.71928098758684    9.63915433327980    3.06943386078829
C         0.55510397814930    7.80140170371387    2.27069964303676
C         1.20248685236778    8.86597805566015    1.52647033913668
C         2.56983026611506    8.85865744878063    1.14462625656978
C         3.14020434743728    9.96319436729421    0.56207591854944
C         2.38648625573605   11.12066261338334    0.33548826762031
C         1.05169679602202   11.15596619644779    0.67524921984148
C         0.44935562852079   10.05688558477786    1.30027726913654
C         2.61005388128412   12.07496964673117    3.40607469851241
C         3.50912526203655   13.16827321016715    3.26590571679391
H         1.13275575781925    6.88006991313612    2.34318680504733
H        -0.47179492399381    7.60246571979290    1.95709534824474
H         3.14533996136164    7.95348367117169    1.28788411126579
H         4.17498525290438    9.93556763490163    0.25734076842635
H         2.84532535335801   11.96963346536914   -0.14726671965054
H         0.45747671882360   12.02957238874704    0.44671868054084
H        -0.63728537622885   10.01790171898941    1.35097042056866
H        -2.19732888772150    6.91941738772451    3.68344639985523
H        -0.95099325270480    6.30865297459309    4.77618339278861
H        -2.44576034285132    6.97894288318039    5.42570617182904
H         0.50226971561013    6.99625734173107    6.49335282674521
H         1.32580999411709    8.39700179638560    7.18405601578938
H        -0.31998167470427    8.00518157008514    7.68473309388401
H         1.52828466986174   10.72669815414190    7.03072469759362
H         0.81540769540227   12.16645366463429    6.29293799429622
H        -0.05814550224974   11.29444426104722    7.55229391233686
H        -0.42521367275917   12.84853424664036    4.51656620889079
H        -1.55290615911094   12.33391037454730    3.25829026500952
H        -2.10580632760891   12.50931302997140    4.92193766868319
H        -2.76853206507849   10.57062858386539    2.50868025563931
H        -2.68119422153714    8.80747529958386    2.36622903145129
H        -3.64909232896152    9.54529023528863    3.63318552510799
H         4.47349504004345   12.79910700511772    2.91444120653659
H         3.11899521967343   13.89403050496658    2.55170955841150
H         3.65121102514598   13.65571468300702    4.23144216867647

