81
CSD_code = ZIDCUM | q = 0 | S = 0 | Stoichiometry = C41H34ClNP2PdSe | MND = 4
Pd        5.56834468589267   15.41765911917644   27.88126480013721
Se        7.04928900290956   13.88868090646650   26.72997228391700
P         6.99445861532012   15.49601169175683   29.61976526028556
P         4.02249701279324   15.30147430240578   26.21220686172248
Cl        4.25659543263649   17.00649911108184   28.89331212773074
C         8.62166819307581   13.81264452273071   31.15469920070759
H         9.16287800850890   14.70827277268441   31.42910664083977
C         2.93444665757504   13.94864377137133   26.75236122216945
C         6.56311517605926   16.32486262874940   31.17508285263885
C         8.98222427217234   12.58362974958466   31.67390521074872
H         9.81794101537682   12.51144036060844   32.35460805359771
C        10.36817654546611   17.81110833837554   27.59842788731436
H        11.12460277888067   18.36648046567294   27.06412977031781
C         9.61396759195688   15.75546310676042   28.58813667262715
H         9.76603221975330   14.70827134494863   28.81052266460534
C         5.37278302815924   15.91694746918433   31.77001793066425
H         4.75335922475744   15.18524944615542   31.26202171638291
C         6.83319977688826   12.75666978634927   29.93085378728663
H         5.98970024088944   12.83782253677704   29.24352420388849
C         7.36679173095486   17.26968372115811   31.79806457867840
H         8.29253224526872   17.58699122032840   31.33721355408289
C         4.56187468450179   15.79589908642721   23.50420784392330
H         4.31368698027881   16.82797542809607   23.71023264188717
C         2.25928845690398   12.47007923806988   28.52779330149983
H         2.35474314657517   12.12580975453568   29.54737937362247
C         5.78133642895625   17.40888717255859   33.59651689153537
H         5.47465301485559   17.83995417544184   34.53820415590351
C        10.58191077380153   16.47946043799215   27.91283393638451
H        11.50225256371495   15.99633069008232   27.61963684207072
C         1.34038516346099   11.87572641636034   27.67845015988911
H         0.71895202005919   11.06822963125919   28.03643017736480
C         8.42851955002040   16.37833932325716   28.95828737378676
C         8.20303080047215   17.71457972980036   28.61873695217064
H         7.25263779311033   18.17342569666475   28.87990159061177
C         8.27236887773835   11.44466199608409   31.32456113885494
H         8.56004981320074   10.48716492993287   31.73302176695757
C         3.05575045807936   13.50389200386160   28.06789555725017
H         3.77831436208101   13.98639013148861   28.74343529355379
C         4.44452601530427   14.83736340151176   24.50519248682542
C         9.17776790813354   18.42999741477947   27.95045546570772
H         9.00678308282496   19.46415920502849   27.68923581306672
C         7.55345958690635   13.89669944034159   30.26803667710758
C         3.58371099504739   17.98401697585800   25.87725477041049
H         4.66489504158835   18.03471908010532   25.95585201660486
C         4.98194747874901   16.46018071387152   32.97738370592091
H         4.05331490787693   16.15232043380554   33.43483909840310
C         7.19578804671870   11.53016494378161   30.45733625973178
H         6.64214309936476   10.64241476733407   30.19021483151408
C         7.20740474217486   16.51237247391073   25.56159251140473
H         6.79187843603881   16.90028834005341   26.50452415672076
N         8.03697110444510   17.00194304255034   23.37647760479684
C         2.94786349620385   16.74947027465109   25.99003431497957
C         4.77787224400879   13.51236580069738   24.23238643278164
H         4.70405009972226   12.76785221047651   25.01429096515223
C         5.32577053419246   14.11193760765336   21.97615779008129
H         5.67467370661438   13.83190313746866   20.99332194863981
C         7.47659888179632   15.15298044465176   25.38708915838718
C         4.99882225792302   15.43057890118993   22.24417652165841
H         5.09428436668476   16.18107746052735   21.47382182395120
C         1.21965793168762   12.31105700503456   26.36783874560091
H         0.50530902061821   11.84239190922098   25.70668652892741
C         8.05874419675555   14.75525695563097   24.18442483857584
H         8.28999303221462   13.71414606350147   24.01612211343367
C         2.01412995766683   13.34187048272821   25.90085997728055
H         1.93487523803270   13.67211010254509   24.87351452335212
C         5.21098611160680   13.15389315953373   22.97027205323321
H         5.46932494881110   12.12536596743803   22.76595811894743
C         6.96953876667389   17.80956442737437   33.00920907850880
H         7.59008430421685   18.54904264713921   33.49450052173522
C         0.82291049328355   17.83593380806221   25.77077289415007
H        -0.25572984696944   17.78086377657653   25.74219387847857
C         1.56256418774832   16.67882014744092   25.94557633292009
H         1.06118677354252   15.72848640029380   26.06190497004046
C         7.50564502605774   17.38004860836336   24.52709246222746
H         7.30815257156023   18.44141208907332   24.62197058605300
C         2.84048477324761   19.13392750416176   25.69800216918256
H         3.33587360797721   20.09014944695137   25.61360793753840
C         1.45756022476582   19.05935458989653   25.64165455041312
H         0.87403506318684   19.95868221739125   25.51001798760168
C         8.31015704740404   15.71456130601860   23.22385092617102
H         8.75053219467400   15.44324310104840   22.27267217420197

