48
CSD_code = ZIDFEA | q = 0 | S = 0 | Stoichiometry = C21H19NO6Ru | MND = 8
Ru       12.00812394879810   20.86956115978755   17.43218094537498
C        13.02750123430145   21.30115871451155   18.91550704416746
O        13.70034155616476   21.59950484473084   19.79226540413341
C        10.49162637081487   21.57569512762069   18.22563434573279
O         9.54720020201182   22.04309089963994   18.67177212446712
C        11.58499504890476   19.09987689823518   18.28762965607885
C        11.37428786711787   17.96190608508630   18.64140267485788
C        11.12413029562437   16.63731775232065   19.07156268710996
C        10.83676842272504   16.35223350918164   20.40813798367726
H        10.79892602642879   17.13093182459052   21.15347401228710
C        10.59739063031186   15.03048786000278   20.76813619118886
N        10.63455274903814   14.02008748946775   19.91189118856487
C        10.90891126163345   14.28626521269148   18.64247256766267
C        11.15936526896899   15.57048208638429   18.16980358781964
H        11.37996843361197   15.73624850759322   17.12755094981529
C        10.29389643948938   14.71593889928220   22.20018765803614
O        10.45710433072976   15.50792447742046   23.09778783272667
O         9.81388725580523   13.49014805796048   22.34723589752903
C         9.52781761437566   13.05447223714492   23.67484847473576
H         8.76048789757814   12.28589681127281   23.56307122336713
H         9.13374196101692   13.89848855086048   24.25155644142307
C        10.77214733236566   12.49099729714374   24.34653307250522
H        11.19587909964290   11.69811522509765   23.73556142767966
H        10.51285898855589   12.09142893340433   25.32288478158370
H        11.51448880560865   13.27550642067463   24.47136366788813
C        10.95240034591129   13.10241175637714   17.72979807920827
O        11.02800104235606   11.95834245589434   18.08712231029301
O        10.89155253581074   13.48029306620747   16.44118110637199
C        10.93107335577553   12.43538589332473   15.46885297127027
H        10.48395083918432   12.86842315309454   14.57138224317033
H        10.32057831410808   11.59881897747532   15.82429468878003
C        12.35524431622585   11.96751578316850   15.20447915050038
H        12.97790850145046   12.80493441236226   14.89806991507425
H        12.35200917465589   11.21979672556636   14.41654820590661
H        12.77266608726127   11.52726019118510   16.10645212913967
C        13.48036481925844   20.27556445230596   15.87343499343523
H        14.37634611988732   19.66731565643436   15.89597018455854
C        12.19671665420439   19.83046451933163   15.44684849581406
H        11.93996317287749   18.81388853001216   15.17714448208860
C        11.36311574879344   20.96082920103948   15.29604109697068
H        10.38167078217414   20.96519656006750   14.83770054390512
C        12.14818260677471   22.12389852673129   15.58401147531807
H        11.84861304368549   23.14472384024499   15.38692928376214
C        13.45998074674675   21.70561297823920   15.91637251241934
C        14.66065423923397   22.59220051077316   16.05386779624026
H        15.41132162975315   22.14546540295691   16.70353328256002
H        14.38866311918339   23.56847359434243   16.45084372104360
H        15.10882376306224   22.73881893074818   15.06856949173758

