58
CSD_code = ZIDGOL | q = 0 | S = 0 | Stoichiometry = C25H29ClN2Ru | MND = 8
Ru        6.61665290303351    6.78153025855817   11.36092829510938
Cl        5.95172264953576    8.81226757840934   12.31422365975324
N         4.75716670480649    6.19999902733121   11.58884673847045
C         3.88601129697420    6.01765791211984   10.49632013091521
C         3.75774188314255    4.72528737144989    9.96389272086060
C         2.95344388301181    4.52485591773570    8.85364606028417
H         2.86026118594381    3.53026010701332    8.44203062812062
C         2.27165563209386    5.57991177600998    8.27538136427549
H         1.64931039768798    5.41307930235768    7.40904352550802
C         2.38454270251383    6.84608281983876    8.81677691574756
H         1.84292536406147    7.66952882464693    8.37458159092210
C         3.17906072461167    7.08679671240424    9.92960264661878
C         4.49396769675978    3.58081700230384   10.59082762528116
H         4.13571263958244    3.39863429348218   11.60387521330372
H         5.55881186294018    3.81306931154861   10.65079123423132
H         4.36448379522390    2.67281341503405   10.00774064313239
C         3.27662814632880    8.46160001382368   10.50249917380435
H         2.56130767378459    9.12931716109875   10.02948419615502
H         4.27985656828994    8.86139358062796   10.35330441986636
H         3.10083118878272    8.45270539523363   11.57684877533150
C         4.37034319713436    6.00887567419951   12.83769614931055
C         2.94542998903836    5.79088304918329   13.24396563171953
H         2.29465585835222    5.80946874198619   12.37309462442569
H         2.63409686660999    6.57449170239516   13.93372467443874
H         2.82948552072395    4.83418376375243   13.75276573026917
C         5.44946693135977    5.93062946486890   13.75840803035800
C         5.25100669382815    5.63066617007216   15.21202113836228
H         6.20974873246777    5.56988875487952   15.72130786174478
H         4.71852635893810    4.68910793489985   15.34547420347165
H         4.65576726579450    6.41796051273058   15.67268769896286
N         6.63498111919260    6.06520407096724   13.19216914230908
C         7.82727834654514    5.70894188500206   13.85224118460846
C         8.64553105395567    6.66744738773166   14.46538969268139
C         9.83698820345074    6.25566585298023   15.04640043683652
H        10.47044318719071    6.99343481197088   15.51705986513292
C        10.21884340220141    4.92752302958187   15.03705164948749
H        11.15027137905222    4.62694909761195   15.49293492384562
C         9.39906997531184    3.98421672766163   14.44563222627883
H         9.68745793398867    2.94299689293272   14.44160686534913
C         8.20152317414799    4.35614008306848   13.85583089031510
C         8.25109557937481    8.10687563179267   14.49248141261473
H         7.22980480408981    8.22726436229083   14.85007504262480
H         8.28253479628299    8.52469564509355   13.48542040620840
H         8.92152134572562    8.68008115452480   15.12760511131085
C         7.31209141525971    3.32887238634318   13.22447622896294
H         7.85237756731462    2.40008090744039   13.05992308442404
H         6.93390096962078    3.69762545873246   12.27060639361321
H         6.45392487170588    3.11880190160388   13.86311084268993
C         8.23198671922466    5.70433435669131   10.26834455628360
H         8.66128562302310    4.73175211786461   10.46992590716185
C         7.16736144507658    5.97662165607089    9.36129200884641
H         6.63423759055850    5.24496513241739    8.76870239382101
C         7.05894995335377    7.38288797446916    9.21925809522038
H         6.44171331338301    7.90135040049715    8.49929004988813
C         8.07517925858152    7.97191614276466   10.02086221263184
H         8.30589731949195    9.02914842595546   10.06082648564112
C         8.79985830084159    6.94759946234724   10.66266350924610
H         9.69876903869392    7.07284349360179   11.24922808120993

