81
CSD_code = ZIDHUS | q = 1 | S = 0 | Stoichiometry = C36H38AuN4P2(1+) | MND = 2
Au        1.96010401073423    3.65772020047195    9.47142991865803
C         5.52809949144423    4.87383033715838    9.67077331179039
H         6.02144049713106    5.79303776884742    9.99424350187649
H         6.30025848409590    4.12879798386328    9.46927303657323
C         4.74204982187635    5.11276352252185    8.38346754047022
H         5.39422367813227    5.54851090430399    7.62092054310716
H         4.34631802141252    4.16435085972633    8.00901066918265
C         4.42419127732261    0.64397986684741   10.40964143881681
H         4.40481590332052    1.65874487799392   10.81576796141552
H         5.43789826728128    0.42877059840470   10.06738581798122
C         3.47179985771772    0.53638611942427    9.21764085087222
H         3.66542656731612    1.34803126851325    8.50957864646883
H         3.61718082528429   -0.41956825829325    8.70895646787982
P         4.45683269965995    4.20115807761252   11.05077255856642
C         5.79466551471559    3.92064264724910   12.28047206069991
C         5.66627050184630    4.36642791906375   13.59242353460824
H         4.80998098287506    4.96071400525687   13.88049463427230
C         6.63625786667994    4.06261686311890   14.52988462967086
H         6.53161492640183    4.42520689662087   15.54157213564327
C         7.73596605709783    3.30122968885095   14.17434146290875
H         8.49808223335470    3.07575763095627   14.90395084941792
C         7.84926175717363    2.81911776142922   12.88123315881302
H         8.69510677521799    2.20993961067412   12.60155262257213
C         6.87557498073738    3.10847004665436   11.94542661403770
H         6.96455274819170    2.70141185772396   10.94729868863179
C         3.74555722604080    5.75312277830998   11.72915851698831
C         2.42354822002326    5.70521926844981   12.15891676273072
H         1.87342501917843    4.77770659171830   12.06344785875356
C         1.81768684778532    6.82250452408123   12.70530837443370
H         0.79544044204437    6.76747215626140   13.05212515388792
C         2.52774303176275    8.00615961624761   12.81900632696051
H         2.05811410160950    8.88216804177191   13.23981719886507
C         3.84999288240885    8.05754560254256   12.40855865841057
H         4.41241723231755    8.97297045376431   12.51487709115198
C         4.46136374446924    6.93666492645716   11.87697717471853
H         5.50545577475497    6.98722840713006   11.60267112697199
C         2.40316941605513    5.58899207382368    8.97180069716230
N         3.62936414220262    5.99716634534915    8.60245169716868
C         3.67941690788717    7.35900391692790    8.53063765833703
H         4.56538407534615    7.89088138274199    8.25267219404646
C         2.44339273911251    7.80979573377848    8.85329731638088
H         2.05696613203001    8.80573557583197    8.91052614218509
N         1.67703116223822    6.70906487817748    9.11698499962539
C         0.29328848507036    6.77107445110237    9.49215979632295
H        -0.25195587142081    7.41888784966558    8.80562169758908
H         0.19414566522705    7.16600972725024   10.50504674704419
H        -0.12988200257754    5.76893775370537    9.45452972460964
P         4.01610192159332   -0.59930273677529   11.75754876252360
C         5.50441228381219   -0.31769133439930   12.79015908171270
C         6.72668599574165   -0.72422215018323   12.25853227506756
H         6.76762005207157   -1.12197545420495   11.25289977837368
C         7.88166886229955   -0.64338789610842   13.01134604520422
H         8.82314110685053   -0.96238188568075   12.58861650584460
C         7.82777975620179   -0.17060653624986   14.31261485064454
H         8.72825524905420   -0.11458018018516   14.90539534757414
C         6.61376390667237    0.21194351475002   14.85516795591713
H         6.56373312999452    0.56666936307202   15.87391901614449
C         5.45425669767368    0.12993379522409   14.10473766366857
H         4.51092123702413    0.40913468225964   14.55090966149541
C         2.74586337419951    0.33338974489924   12.70825311477665
C         2.83835244927404    1.67948516682566   13.04459504238195
H         3.71340222614765    2.25438068857472   12.77225445587288
C         1.82923456916303    2.28731743710715   13.76820935472978
H         1.91972808903023    3.32897948914674   14.04049832247460
C         0.71649992608402    1.56226494210289   14.16455581017417
H        -0.06616473224464    2.04169960906558   14.73435329498906
C         0.62411665669506    0.21696830151159   13.84993758467211
H        -0.23010715062727   -0.35891921950311   14.17433234133250
C         1.63541060624255   -0.39220961429002   13.12859091615768
H         1.57466876934376   -1.44532768061422   12.89104819157978
C         1.40982884820804    1.73549367943025    9.89639117115191
N         2.09708791411341    0.60958368495835    9.63849269160327
C         1.34755462196609   -0.48903890331494    9.94470536268352
H         1.70840590763231   -1.48752700184005    9.80898435087715
C         0.15864524344462   -0.03379646134465   10.40691544092554
H        -0.70698618337171   -0.56052613027349   10.74961937354093
N         0.21947152587076    1.33036853431558   10.37136121138803
C        -0.84411630679487    2.18048011634726   10.82348900076418
H        -0.99640594782379    2.04683371353561   11.89621073545645
H        -1.77047487996796    1.93914814167262   10.30112819322172
H        -0.57829484616946    3.21765747008298   10.62702152572774

