49
CSD_code = ZIDJEE | q = 1 | S = 0 | Stoichiometry = C16H26AuCl2N4(1+) | MND = 2
Au        5.33328553625411   14.33677205831781    8.21093248000472
C         6.61728167212298   15.79629223972402    7.64630803459166
N         6.27852988810092   17.06713794918393    7.33246513946257
C         4.94808703679480   17.57041886651752    7.32843769771202
H         4.28615042938683   16.92242523479279    6.75097161019750
H         4.93047372339416   18.59000846005050    6.94240905513038
Cl        4.29736146846865   17.61331170781057    9.00501766342093
C         7.40273312118822   17.80903123138034    7.07617130597154
H         7.36402774568103   18.84606040372221    6.81610206186999
C         8.45618269596037   16.97130908116477    7.21668969638159
H         9.50486921404088   17.14956937246398    7.09959686789793
N         7.95261378087484   15.75072494827184    7.57315130282238
C         8.75618252935049   14.56948340886364    7.76619541007231
H         8.27497419242346   13.94462725783874    8.52229061858923
H         9.73862650763247   14.87451775927862    8.13313607454027
C         8.90398779838550   13.77951871935872    6.46363846926028
H         9.35259411250564   14.41784611888560    5.69968774334763
H         7.91230149402877   13.48249599301893    6.11508900843448
C         9.76856635827119   12.53689704728355    6.66200376784149
H        10.76659785261544   12.83625505292296    6.98722616563633
H         9.33350144419765   11.91667921407837    7.44824631834222
C         9.87455067513137   11.72497691211147    5.37779435860095
H        10.31668992420120   12.31983508580820    4.58248969570889
H         8.89077866541451   11.39397363435546    5.05291519722113
H        10.49625320810044   10.84817484477398    5.53497316262627
C         4.04925727196825   12.87726318998441    8.77550238652987
N         4.38797266851254   11.60636281797458    9.08915719453408
C         5.71839095877631   11.10302427095258    9.09302154170071
H         6.38041737245164   11.75095554910052    9.67045118239531
H         5.73600211046928   10.08340788847782    9.47897349589098
Cl        6.36893073947888   11.06022572942412    7.41635679109122
C         3.26374799872342   10.86446892909480    9.34535587193425
H         3.30242265276752    9.82739976322871    9.60526708244256
C         2.21032800338984   11.70226022389297    9.20502815751910
H         1.16163996387841   11.52402563860930    9.32214417110731
N         2.71393057357204   12.92287609993752    8.84872639442264
C         1.91040417467334   14.10418202486269    8.65589262063444
H         2.39153873275704   14.72907881289848    7.89978487507018
H         0.92789517418196   13.79923189835078    8.28906211358402
C         1.76279502763044   14.89405800824852    9.95852268253989
H         1.31426228427172   14.25569462654320   10.72248544491785
H         2.75453957274716   15.19101039841024   10.30695804455518
C         0.89825322895227   16.13673859312859    9.76037426266309
H        -0.09983938545409   15.83744814536119    9.43528096626552
H         1.33323327721870   16.75697926899699    8.97410499634083
C         0.79249191068386   16.94859458634320   11.04464085433615
H         0.35042163640475   16.35371527983009   11.83996737617180
H         1.77633360247505   17.27950487077652   11.36940137478153
H         0.17082937494358   17.82545078359384   10.88760121288657

