38
CSD_code = ZIDKAY | q = 0 | S = 0 | Stoichiometry = C16H20FeO | MND = 9
Fe        1.74110714532334    2.34771935682615    2.94949621388119
C         1.06797413576332    0.75871889480063    2.75741974248243
O         0.62024530054238   -0.28406134211973    2.62418087125284
C         0.67740449053530    2.43616261201030    4.65990126505459
C         1.73884136885113    3.40749566864055    4.70338471218573
C         3.02196770814086    2.98871202233969    4.41789779710647
C         3.20601402997328    1.60590186271726    4.07936617599308
C         2.97424442292346    0.46846187308574    5.04278622496697
C         1.63339236983978    0.37806096471369    5.68157784749791
C         0.63569914206501    1.22832067039907    5.47536801859506
C         0.16441466436208    2.72332984052815    1.72326638797903
C         0.67197265569913    3.91250494932263    2.24201301963198
C         1.55128595268406    4.89122020700033    1.51309439069552
C         2.71616135708314    4.19492100087507    0.81546796419240
C         3.11303405857201    2.96095026002032    1.58527591369446
C         2.63655247753301    1.68960022994350    1.26201730003946
C         1.66391140811579    1.45030288416239    0.13243254370064
C         0.38562918987868    2.28585772828132    0.29171054401509
H        -0.30724732647377    2.89307828680250    4.59877966929670
H         1.52515665208295    4.45799697542690    4.83824203739569
H         3.81558535221865    3.71350013319248    4.30750371963294
H         4.15451227170265    1.43203711841690    3.57163560999977
H         3.73730849528288    0.52138721782870    5.83140147260874
H         3.15215218416022   -0.47224014859326    4.50881286553762
H         1.48057888969795   -0.49160930525076    6.30635577794945
H        -0.32438225999370    1.01480040790809    5.92810102292324
H        -0.76471467121115    2.37268979535363    2.15607241563443
H         0.06788318854915    4.39757104536428    2.99907740291545
H         1.95119359997038    5.58013822591055    2.25896868595364
H         0.95941411246077    5.48570550921519    0.80780372592802
H         2.45030250145027    3.92481305530857   -0.20627047760850
H         3.56533057319169    4.87795444871880    0.75668437731781
H         4.09936714095340    3.01670840641601    2.02337921145211
H         3.28918147713775    0.84615758338405    1.45276074135182
H         2.14965183061652    1.66487621311479   -0.82568504663402
H         1.40315109001783    0.39179090680443    0.12632658389942
H        -0.47091592042917    1.69491029776012   -0.03545979598936
H         0.42393894072903    3.17165414337095   -0.34484693252983

