31
CSD_code = ZIDMII | q = 0 | S = 0 | Stoichiometry = C8H13N2O5S2Tc | MND = 6
Tc        2.49501304130602    8.66244183948614    0.90125437468341
S         0.60228135305453    9.03803766248268   -0.45538034529775
S         4.31719893584677    8.89324858702317   -0.52278810454089
O         2.54550107065581   10.02387083065504    1.80745100341686
O         2.25251745336686    6.85547748057409    0.30456688788647
O         1.04657601522433    4.97718404449650    0.26116978713999
O         7.12727706130530    5.93489716753797    1.73478826105976
O         6.19813905514589    6.77926075146956    3.58463586105600
C        -0.52371152093592    7.90401989679301    0.48389874081224
C         0.21103103417568    6.93661790792992    1.41726502331371
N         1.00029713724687    7.72109104022284    2.35954379756469
C         1.76083961581841    7.01084952785177    3.39548755436344
C         3.12433700302233    6.47003810535194    2.92204112275411
N         3.91420383324537    7.51908951655170    2.26651431257654
C         5.06186654899925    7.07533837547693    1.48456901406885
C         5.58794701168319    8.24919475430586    0.64662503045621
C         1.23468579978688    6.12954413373436    0.56897047772365
C         6.17956468048062    6.58232597179186    2.39839611156591
H        -1.08827448549408    7.34922050670260   -0.26504082256316
H        -1.20733215613978    8.53887976983821    1.05100749719924
H        -0.49514408786476    6.25061259445862    1.90668183126139
H         1.18063305354933    6.16932699349207    3.79699066000087
H         1.94203771182571    7.72596925760632    4.20229944349144
H         3.65579685115309    6.07124314147849    3.79508393599795
H         2.98095703975511    5.64720958955919    2.21757042228050
H         4.75603747242317    6.26787627328870    0.80956228116778
H         5.88371333774065    9.07745595305925    1.29315119174659
H         6.43541628132704    7.93431709262256    0.04011981602187
H         4.24831141981900    8.17145408244539    2.97901086922989
H         7.84617780565196    5.65367015724821    2.32483821811114
H         0.41690462682525    8.43553699446520    2.78971574545108

