78
CSD_code = ZIDPUZ | q = 0 | S = 0 | Stoichiometry = C37H34N2P2PtSe2 | MND = 4
Pt        6.58559370806974    7.73929154678194   11.30661860862530
Se        5.23610691933519    8.90928835129018   13.02872455532043
Se        6.09428021325747    9.31767675878882    9.51573777501946
P         7.81298893606086    6.55664450274022    9.73838694590894
P         7.27092457386871    6.25084403737956   12.93663320449619
N         1.03566666623103    8.65624669095409   10.99695413606344
N         3.01919111238978   12.56702782335730   10.93860527950314
C         3.53148161437049    8.80285107789218   12.21682888407256
C         2.47944430167169    9.60794624533104   12.64523605512525
H         2.62433996554955   10.31799803637238   13.44623649781158
C         1.26392346479966    9.49344585105683   11.99745152744418
H         0.42506191275003   10.11306527249745   12.28726391461937
C         2.03556501880703    7.88271360428017   10.60430660790182
H         1.81436915140550    7.20999731743558    9.78420248179159
C         3.29002327493298    7.90564104378143   11.17964214690064
H         4.08975006907840    7.25826290057002   10.81802379515514
C         4.84931000601723   10.65057219676835   10.10886377204205
C         5.17131986313425   11.54978699467187   11.11816886568061
H         6.13784449306788   11.51594961984557   11.60084072738047
C         4.21504203436841   12.47537080855302   11.49715672796092
H         4.41547042232704   13.18373331854301   12.29156671120093
C         2.73204310112417   11.72803119559735    9.95747603910592
H         1.74687731189158   11.83536113031443    9.52168057717582
C         3.60391654278457   10.75435283253879    9.50191801534723
H         3.32113425615379   10.07965187652892    8.70703607306705
C         6.94483759845600    5.02287230703064    9.28939447649266
C         5.76586019475371    4.70600467276889    9.95170142759114
H         5.37309301104213    5.39920005893681   10.68997924933572
C         5.09997674600089    3.52603463114425    9.67429978132452
H         4.18743303415850    3.28639479038170   10.19938418924142
C         5.61103540497434    2.65895295110030    8.72339267474177
H         5.09618789546144    1.73594862304288    8.50215954000224
C         6.77963672639249    2.97680495916744    8.04643509729898
H         7.16902000607410    2.30309173547692    7.29733209787715
C         7.44817134336331    4.15384349985444    8.32523348298636
H         8.35297457156952    4.40788118131453    7.78988869523289
C         8.23554549056926    7.26861408942066    8.12482425821183
C         7.28784201454783    7.21960583070553    7.10470873690248
H         6.34399956356441    6.72061940820875    7.27833654214922
C         7.55417161010930    7.80776315961006    5.88302985880920
H         6.81703636952705    7.76602519243496    5.09515314430484
C         8.75840873780658    8.45995430198950    5.67456630093684
H         8.96406623926069    8.92343970632832    4.72121880404316
C         9.69293208316214    8.53198382192991    6.69414853070032
H        10.62507867465036    9.05477730663303    6.53730996528890
C         9.43270285339322    7.94644682674314    7.91974565273656
H        10.15790443072317    8.02578519871472    8.71685810136284
C         9.43635246437850    5.88134794593613   10.31103217301639
H         9.91737571452004    5.41663751931597    9.44399053836223
H        10.06017496409075    6.71566644296584   10.64473688360244
C         9.29086896336100    4.85906330591847   11.43483499906267
H         8.52583336757426    4.12837279116367   11.15700310722369
H        10.23881784472355    4.32152568165106   11.54159871096970
C         8.95432999691673    5.50318027218754   12.77698080445909
H         9.65669715204474    6.32131186831525   12.97501222278549
H         9.05932250544885    4.77953411147563   13.59282790385423
C         7.52650666967788    7.05719768568659   14.54251301556006
C         8.04865937025135    8.34766590537350   14.51161123735255
H         8.22834746082690    8.82109945934030   13.54872935246749
C         8.30973000890803    9.01799686783370   15.69044074121197
H         8.70506807764104   10.02240652868290   15.66713929725485
C         8.05047955924431    8.39963433452546   16.90399345519217
H         8.24498637932463    8.92471647225852   17.82737400532544
C         7.53242912641811    7.11569928463447   16.93651388756824
H         7.32637221961485    6.64017647047618   17.88424718430354
C         7.26988549545328    6.43845988260127   15.75821225174601
H         6.85654000946845    5.43941367748190   15.78009721979946
C         6.14147282076416    4.87306054395606   13.28962310710875
C         6.47874652325435    3.52790156584748   13.18875101403337
H         7.48692104469032    3.22695619184115   12.94733415108568
C         5.51618933919651    2.55685936161594   13.40570196165783
H         5.78533004392343    1.51348924568313   13.32720661143469
C         4.21592560780100    2.91541793901325   13.71798351591715
H         3.47012278781265    2.15181565373583   13.88196929473843
C         3.87299975550661    4.25533587146150   13.81805565553197
H         2.86008655560016    4.54127541517812   14.05913361288540
C         4.82860413434160    5.22757054219466   13.60039006797623
H         4.56784050420273    6.27661587482557   13.67180148417732

