67
CSD_code = ZIDQEK | q = 0 | S = 0 | Stoichiometry = C22H38N2P2PtSe2 | MND = 4
C        14.86026547412422    1.23340066242045    8.40730785043954
C        14.04605960458153    1.30416586412985    9.53738786891720
H        13.16137777873596    1.94542370528694    9.53933081524161
C        14.38251091846634    0.55347243905256   10.64611936559780
H        13.77452194009005    0.58713716237856   11.54202686731603
C        16.20936929139822   -0.31049912445138    9.62389067672020
H        17.06391298882903   -0.97032986301345    9.70516327092759
C        15.97273350826513    0.39540773527757    8.45960769663641
H        16.62989940720300    0.30763382404128    7.60719268049926
C        10.05912138610990    5.64058393430280    7.43038345982506
C        10.84619518603507    5.59095758902585    6.28009451998117
H        11.72253011676751    4.93994263342905    6.24208535167210
C        10.49301630811550    6.37419480711094    5.19957353879023
H        11.08017943037605    6.35833565156169    4.28936341281878
C         8.69936257539422    7.22953364188254    6.28596327766767
H         7.85054875313274    7.90024840022059    6.24193047202607
C         8.95460916944944    6.49059260661311    7.42558820286689
H         8.31799535367432    6.56271014383094    8.29489301321635
C        13.35690280870083    5.54831600121324   10.60003593301216
H        14.13046321914974    6.21984653229514   10.97967149374337
H        12.43487127492756    6.12458367411249   10.48152833391660
C        13.11727215395338    4.38432098142419   11.55198208162955
H        12.28881563233313    3.77526223795946   11.18525494485813
H        12.85320431851713    4.74779748219229   12.54274431433684
H        14.00114781394250    3.75421866448102   11.63791812846105
C        15.63320144220371    4.51743137071525    9.13658282437913
H        15.66793377272716    3.59139576171491    9.71891531577278
H        16.00430640132697    4.27660192904353    8.13586706165540
C        16.52570458261993    5.56987736403814    9.77918323072908
H        16.46384137337137    6.52040775488207    9.25430739282718
H        17.55992338015710    5.23258735288077    9.74085626543451
H        16.26916674624969    5.72916045481937   10.82368174643621
C        13.88158929895842    6.52414604296275    7.96560621232419
H        12.83812787555239    6.83713329106490    7.85513109538372
H        14.40283157237278    7.30126994122861    8.53104045130669
C        14.51523031916309    6.31192777363952    6.59446547930856
H        14.27607138620369    7.13696672667918    5.92694617306512
H        14.14586307659367    5.38766785097493    6.14443854526821
H        15.59730007683196    6.23420096799686    6.67132288175041
C        11.60313964830240    1.36021186416083    5.13530487364010
H        12.51862671323730    0.77272555173665    5.24929621835508
H        10.82747973749738    0.70578924725766    4.73108437264722
C        11.86367741298437    2.54529003218058    4.21539009785558
H        12.13992397056407    2.20445973832850    3.21993610220525
H        12.69069273183283    3.13972481007478    4.60896786543560
H        10.98474976074175    3.18265851599411    4.13216909860956
C         9.31630033488270    2.35943191444993    6.60590142261034
H         8.93953570942630    2.58063951833492    7.60904880149656
H         9.28402998759144    3.29642985448905    6.04126952610725
C         8.42913088218087    1.31840234476484    5.93770797736714
H         8.68848970214732    1.18402347439783    4.89039694081160
H         7.39352429200747    1.65073679367420    5.98125871890905
H         8.49372057688076    0.35629087499052    6.44067103356150
C        11.06500761736056    0.33117735586731    7.74696385713727
H        10.56264638481461   -0.43915875554544    7.15558367650500
H        12.10967200335844    0.02678923709148    7.86986647002421
C        10.40449928912021    0.50646000136520    9.11052802505770
H         9.32333965341138    0.57614818884917    9.01524421336255
H        10.75689028019953    1.42256834707895    9.58933225008928
H        10.63886123436846   -0.33215993172213    9.76271363536558
N        15.44087374320280   -0.24030916991385   10.70063779549180
N         9.44253395065646    7.18039684928997    5.19048476020717
P        11.09418724441489    1.91466524637979    6.81348369007106
P        13.85432630276643    4.95932089484142    8.93023485738857
Pt       12.47243098110797    3.43167400887941    7.88050450912313
Se       14.46802974059507    2.23453770484395    6.85508017159019
Se       10.47670239776267    4.59514351835444    8.94515679218333

