91
CSD_code = ZIDQIO | q = 0 | S = 0 | Stoichiometry = C46H38N2P2PdSe2 | MND = 4
Pd        2.37817221042544    6.65048942540961    3.98080896494275
Se        0.57390017573070    6.61548389482464    5.61279335466332
Se        4.15753499982807    6.86515055366934    2.32763445637361
P         1.57681327582426    8.65275797730796    3.17788216728316
P         3.26165523922435    4.61124965557844    4.53981115982478
N         2.79992832767440    5.29126761216417    9.50842498800301
N         1.27329668809888    5.38620986312343   -1.04277664472503
C         1.46995045476901    6.09481596593746    7.19439094147597
C         2.84647365580204    6.25414984786087    7.32908093980592
H         3.43184119499789    6.70660846222922    6.52981588758794
C         3.45523930541613    5.83395164188174    8.49575579910067
H         4.52645761557260    5.93302860832026    8.62727687778438
C         1.48624441310504    5.16469698531265    9.38835416617167
H         0.98336543957306    4.72359494710287   10.23981775189894
C         0.77222116784538    5.54724170703962    8.26999661688170
H        -0.29835107697535    5.41752180605922    8.21198872268378
C         2.99446720388033    6.25131002119805    0.97204310177193
C         3.38782437141780    6.26225704930610   -0.36512610787338
H         4.37181520381114    6.61632183166906   -0.63395871086253
C         2.49293179056126    5.82300703939268   -1.31959984669181
H         2.75996745767009    5.82092982625878   -2.36881133879719
C         0.90498015047624    5.36689657460324    0.22683364566578
H        -0.09659421376063    4.99830642327592    0.41548852731753
C         1.71225319813704    5.78026356157804    1.27002303566778
H         1.34980113444167    5.71697706800052    2.31575415851131
C         2.45115619527305    9.97128220343769    4.05587779327284
C         3.18825403769518    9.59836095710192    5.17509247164844
H         3.21134103456658    8.54248686301889    5.46819659142274
C         3.87567054265267   10.54778091602644    5.90807979974236
H         4.44455197906904   10.25513564988613    6.77839549570222
C         3.83014893686587   11.87631663510830    5.51873067306463
H         4.36503807777633   12.62272288946896    6.08705261259712
C         3.10622976345968   12.25216379077816    4.39703105508301
H         3.08129833375039   13.28884150815867    4.09406174238649
C         2.41741788843281   11.30627978541948    3.66066503947879
H         1.86662927570619   11.59354348035105    2.77475522080195
C        -0.19929356248444    8.94646130200980    3.44529808024783
C        -0.71862599534919   10.14820929598387    3.90586099885558
H        -0.05902924387402   10.96503866241021    4.16125120138364
C        -2.08722473355414   10.28965498582825    4.05626402911828
H        -2.48975925013430   11.22375229846017    4.42020597425652
C        -2.93830214543232    9.24127397121282    3.75065862442358
H        -4.00481468116106    9.35930241379523    3.87228455732494
C        -2.42242871705181    8.03457567205885    3.30607355387614
H        -3.08323458204841    7.20994133097386    3.08331363562239
C        -1.05707741826203    7.88491697121874    3.15939207532863
H        -0.64296470057684    6.93303638493210    2.83344691330962
C         1.76235428660613    9.09012237623200    1.42043345717866
C         2.96685011882138    9.62679329909760    0.97082920102886
H         3.75274243834488    9.85652530141035    1.67827891435346
C         3.16128746804131    9.85357886289830   -0.37864918711199
H         4.09884877713572   10.26666052392399   -0.72029711887639
C         2.16550780480069    9.53861709502946   -1.28850302363169
H         2.32570401446129    9.70318623907746   -2.34361341549861
C         0.96529587273008    9.00883319489249   -0.84523795069827
H         0.18835301184029    8.75763554235475   -1.55169644586629
C         0.76173000485009    8.78281863124229    0.50348996343634
H        -0.17591562795277    8.36377888960241    0.84194723312092
C         3.32455119511155    3.57607590828367    3.03171051542406
C         2.18508968816898    2.92751751770404    2.56195187114267
H         1.27711326187758    2.92504230898752    3.14670306318321
C         2.20082249235804    2.27992341882006    1.33991776892193
H         1.30784383478411    1.78619614700885    0.98605611602200
C         3.34734689788858    2.28147267489369    0.56474406343925
H         3.35118360976796    1.79241524477475   -0.39767134563415
C         4.48591073601540    2.91908706749016    1.02690260095635
H         5.38497686364643    2.92708790179507    0.42869662676746
C         4.47870550784477    3.56368985335539    2.25007219935654
H         5.37102711233093    4.07115609427970    2.58988263859636
C         5.00683098528070    4.67689106087669    5.03423848868977
C         5.74499095181842    3.50402198662795    5.18059267977438
H         5.27803435014738    2.54850666108525    4.98080226712689
C         7.07246140110091    3.56915674281432    5.55893105613718
H         7.64272548159872    2.65883191358782    5.67274026530699
C         7.67372841311515    4.79808702576909    5.78482515502676
H         8.71130433595266    4.84297584735822    6.08065949811971
C         6.95162755881832    5.96702408074640    5.61471257930756
H         7.42475909510942    6.92540259328125    5.76840969502859
C         5.62192502297935    5.90656303267815    5.23827774887873
H         5.06456358634321    6.83029954340070    5.07307837503130
C         2.44652406157826    3.54205525844101    5.77267283274860
C         3.11526850857777    3.01296231779888    6.87125368390067
H         4.16663765673786    3.21007674796008    7.01995235939965
C         2.42929421040220    2.25351804505758    7.80105701214704
H         2.95734204489827    1.85712981349832    8.65532634744033
C         1.07309970119731    2.01903211353684    7.65085162600252
H         0.54184220193044    1.42990494758092    8.38335139480172
C         0.39542788355132    2.56369322059461    6.57370940000521
H        -0.66778532351124    2.40891174323314    6.46422444489590
C         1.07494183668527    3.32940919872244    5.64554019499981
H         0.52335624769420    3.80276569546452    4.84205439602037

