71
CSD_code = ZIDRUZ | q = 0 | S = 0 | Stoichiometry = C34H31Cl2N2PPt | MND = 4
Pt        3.08707041250670    4.55519758040396    4.29318160095336
P         7.31408376600376    5.23277022628099    3.34904533164822
Cl        2.47032435647984    2.38711522814843    4.09237652907402
Cl        2.63530794767727    4.61396234157992    6.52416575472814
C         5.65380253508476    5.64899123333096    2.95175671796464
C         4.91655111874842    4.72464072003064    2.14869063405192
N         3.81513776344127    6.41449390469845    4.37724413496209
C         5.04879449610263    6.60668112515266    3.86727733422778
C         5.77358293743718    7.75131776140097    4.22229521966610
H         6.77429506861668    7.87940981765073    3.83285178541544
C         5.21884917510145    8.70142134638558    5.05280471740319
H         5.78315372614293    9.57754291458910    5.33496202653469
C         3.91899456123746    8.51283032037593    5.50336915997185
H         3.43339012736177    9.23646293292059    6.13664520880201
C         3.26177883317565    7.35255217570094    5.14398740951418
H         2.26447313855086    7.14340849226509    5.50557431650186
N         3.66216818589583    4.47789799892488    2.37987081511087
H         3.20232946201586    3.84853248609208    1.72773504541588
C         5.60029583358504    4.07507382764748    1.01380047222887
C         5.32720428691152    2.73916853079194    0.71943012557415
H         4.63716635139420    2.18645063562342    1.34092528576085
C         5.96739054547000    2.11468045954396   -0.33270523013589
H         5.75779884670856    1.07738949504566   -0.54709802918838
C         6.87319387373419    2.81454102361185   -1.11396091353521
H         7.36988762581229    2.32385862663153   -1.93776217294971
C         7.13320472067656    4.14656426271820   -0.84103499038095
H         7.82703866887377    4.70082881118060   -1.45652732835703
C         6.50251827822620    4.77404496794482    0.21758224220541
H         6.68352573662317    5.82055191992791    0.41032431943801
C         7.44948266191042    5.41576832147046    5.15322632198958
C         6.38738435484709    4.95395665509341    5.93270769530088
H         5.51281968342694    4.49376247451387    5.48013314123269
C         6.40329810861380    5.11784952779171    7.30040074824697
H         5.55806940877626    4.77265328880144    7.87655052415214
C         7.47583120153933    5.74376168796631    7.93113422595215
C         8.52797409796881    6.20313265711690    7.14934615314699
H         9.36468804007439    6.70144011123968    7.61832751133308
C         8.51892004473932    6.04882199469733    5.77426895245443
H         9.33932677544145    6.43946167236543    5.18910311600032
C         7.46909879813998    5.92706729749377    9.41475779546650
H         6.61824021073679    6.53947661561785    9.70997419948137
H         8.38254445620124    6.40592665123808    9.75847494779152
H         7.36681910191589    4.96402956085547    9.91237854910826
C         8.66779431674596    6.19873920818333    2.60960598357868
C         8.40363071759554    7.30980733988072    1.81712855854926
H         7.37802721938091    7.59911877272180    1.62844215123269
C         9.44369741651217    8.04084913627589    1.27741136109262
H         9.23041029224643    8.90281323021587    0.66193924887653
C        10.76707325528041    7.68303405252341    1.51742465143691
C        11.02378222001738    6.57136342378165    2.31295143121634
H        12.04582574623644    6.28095807624640    2.50963896598865
C         9.98922023213782    5.83349839506832    2.85566470937281
H        10.19972535387304    4.96805961381002    3.47019987216077
C        11.88303165743228    8.47606673287609    0.91523852587507
H        11.71492748112119    9.54202244322851    1.05558793362346
H        11.93656115014559    8.28796849537996   -0.15706942896450
H        12.83838012037649    8.20753694152553    1.35816236853169
C         7.63823567161772    3.49254612821187    2.96072588426022
C         8.57657467327837    3.09950034595028    2.01317277280140
H         9.17308610346968    3.83714547005261    1.49615576843923
C         8.73037285521768    1.76023578001834    1.71068586184917
H         9.45752498010141    1.46605350451481    0.96750992142360
C         7.95638623557632    0.78963799870198    2.33540912323138
C         7.01828545674794    1.19388993720076    3.28047205265497
H         6.39608405473464    0.45830037229881    3.76758431086379
C         6.85559904233913    2.52758536849949    3.59186597622279
H         6.09798946352267    2.81387490719585    4.30646834910046
C         8.09716326274089   -0.65464334310557    1.97488231937945
H         7.35082349363761   -0.91889563016684    1.22540424475796
H         7.93384122944762   -1.28820893181837    2.84328346838116
H         9.08083697454614   -0.86174745223682    1.56066220970960

