31
CSD_code = ZIDSAG | q = 1 | S = 0 | Stoichiometry = C13H9N5O3Re(1+) | MND = 6
Re        5.18357055420448   -7.18943149188028    1.81376611300572
C         5.92194322669503   -6.72169371637592    3.57100276625857
O         6.34766721993976   -6.49939856726220    4.60281089557891
C         5.77840089266044   -5.46878795239662    1.08090920128952
O         6.11864070118776   -4.49109897388465    0.60816960721418
C         3.43574020898949   -6.44203480979194    2.29312195695678
O         2.40064184390413   -6.05307032623516    2.55213180263596
N         4.38972263142204   -7.98007587526760   -0.03992474506233
C         4.25852975050473   -7.35980976057549   -1.21327522166525
C         3.76218032715893   -8.01264545260761   -2.32941259665927
C         3.42100561351398   -9.35363917889521   -2.17516217707080
N         3.54563496116231   -9.96265047887617   -1.01229059036921
C         4.00676982079650   -9.26886294723912    0.00755902504290
C         4.09057061438744   -9.93368573725514    1.31803030051536
N         4.53499741921853   -9.18707887726854    2.34509798053494
C         4.55604711528469   -9.77050059685929    3.54414171919401
C         4.15093953052513  -11.08304123220216    3.72128955093422
C         3.73475245209888  -11.77234080149822    2.58549671672110
N         3.70780390302080  -11.19083617648483    1.40237103982650
N         6.92913764631495   -8.10704750937998    1.25507039461774
C         7.91655929315991   -8.61351580700691    0.95894226829135
C         9.14967796538660   -9.22147038693629    0.60165184057930
H         4.55604847135448   -6.31942498000345   -1.25170165287528
H         3.65189050538624   -7.49945483150811   -3.26955915520060
H         3.03957446068696   -9.95468238774109   -2.98830753541642
H         4.90288970553595   -9.16822365451609    4.37436528064538
H         4.16393783605922  -11.54210287648862    4.69517091171965
H         3.41458276370581  -12.80410190296613    2.61576349294874
H         8.97563268393717  -10.08767294992185   -0.03747112186823
H         9.67582258208910   -9.53953075253948    1.50267860849200
H         9.76808729970869   -8.49918900813581    0.06686332318442

