57
CSD_code = ZIDWOA | q = 1 | S = 0 | Stoichiometry = C18H24Cl2CoN12(1+) | MND = 6
Co        0.72067375111905    6.23780514914419    0.00009464278315
Cl        6.62654920797773   -1.14155832329839   -1.67891194390090
N         1.41916801787492    4.83547547199761   -0.94874465838209
N         2.44867705064841    4.10899815106182   -0.54917135624613
N         0.92628318158851    4.39459734182751   -2.07630035641601
N         1.62140271153680    3.37017432618457   -2.45265048355024
N         1.17155151179230    5.34015935383525    1.68094777184268
N        -0.98735764677053    5.25794770843590    0.10085152203008
C         2.56956468268402    3.18447785611207   -1.51281510020342
C         3.56168649463863    2.13547447538469   -1.54661391942562
C         4.51652886233737    2.02850482239855   -0.53704432367734
H         4.51478775629360    2.74038495288844    0.27480106934725
C         5.45919208997867    1.02188011422190   -0.57645692076528
H         6.20144254528754    0.93410732424278    0.20071765745310
C         5.44906087915713    0.11574700969893   -1.62905709865311
C         4.50285569159153    0.21345873163513   -2.64137277070799
H         4.50825085721249   -0.49674101393622   -3.45249581112586
C         3.56194563964152    1.22151530506166   -2.59917957594440
H         2.81775854378894    1.31507153615285   -3.37454711710346
C        -0.04050141016525    4.72767797259614    2.25337283887756
H        -0.61134759399241    5.50522763030856    2.76677616503310
H         0.20446030929034    3.94222775067791    2.97301037752099
C        -0.85155888270975    4.17081712287061    1.09071643898279
H        -1.82554467938336    3.80443167247685    1.42553750398412
H        -0.31007820626033    3.34313408559910    0.62658074633893
H        -1.27799190543354    4.85497789287603   -0.79299908182572
H        -1.73332051648440    5.89358405592780    0.39736963317681
H         1.57455641694910    5.96877359071621    2.37981641226099
H         1.86242352437049    4.60972754657236    1.46621749984114
Cl       -5.18443528817742   13.61797467204862    1.67829500944586
N         0.02214711398619    7.64013718780791    0.94893662797533
N        -1.00703991037332    8.36692353685603    0.54908522516420
N         0.51469406384047    8.08072469499819    2.07675279247382
N        -0.18025375863277    9.10532175100223    2.45294132647055
N         0.26977393818324    7.13549089552502   -1.68072297653447
N         2.42872905079317    7.21761731168155   -0.10066825792738
C        -1.12815975797221    9.29124755532154    1.51288722835462
C        -2.12010628196593   10.34042361378901    1.54651470998313
C        -3.07473948404078   10.44757725648821    0.53676661276672
H        -3.07294486667023    9.73573482098777   -0.27511504573174
C        -4.01723846913924   11.45436116596243    0.57602046904629
H        -4.75932347678356   11.54227986174037   -0.20129682355579
C        -4.00714027363386   12.36048107558070    1.62862868079607
C        -3.06111973258564   12.26260977522137    2.64110007992900
H        -3.06657902292200   12.97276574084738    3.45226548035468
C        -2.12037787964622   11.25439028306847    2.59906860068748
H        -1.37637207598026   11.16067424394789    3.37459248649885
C         1.48183504743134    7.74791279354815   -2.25318698959485
H         2.05264268151622    6.97034222237204   -2.76660145166092
H         1.23688319680137    8.53336866242227   -2.97282332193475
C         2.29294546896330    8.30473549439894   -1.09054752687618
H         3.26693899908087    8.67107802685729   -1.42539207076423
H         1.75150802050573    9.13244609546780   -0.62641209277917
H         2.71946683388063    7.62056582695500    0.79315566524688
H         3.17461751725867    6.58190933952810   -0.39722752265159
H        -0.13335471286569    6.50697211568331   -2.37960202949316
H        -0.42101582540477    7.86597436621854   -1.46586464723424

