29
CSD_code = ZIDXAL | q = 1 | S = 0 | Stoichiometry = C14H8N2O4Re(1+) | MND = 6
Re        1.03288624048894    1.93481493306132    2.39407203361422
C         1.41452962339547    4.90786274278380    1.89711593179569
N         0.43752798648875    4.03311346203209    2.21244006056495
C        -0.80045586876405    4.48722017898068    2.39977492634081
C        -1.13844261931831    5.82458678833983    2.28811608772040
C        -0.14400456209200    6.73500518305355    1.96798415920511
C         1.14417754922490    6.26911089099958    1.77075928115804
C         2.75937896578793    4.33691186582188    1.70044634318474
N         2.87006038105844    3.00357409290227    1.87126342991373
C         4.05997459359650    2.42794581243161    1.70801004511289
C         5.19981289127044    3.13515023427239    1.36747291423541
C         5.10038073365981    4.50546740560869    1.18682651019090
C         3.86674378882270    5.10959347643567    1.35582676958052
C        -0.74698737501126    1.21071663230566    2.84941153791637
O        -1.78808155048927    0.83866820111487    3.10676081836710
C         0.68319345107843    1.73461909673929    0.45189825212685
O         0.50100864715247    1.66256294367987   -0.66070978348699
C         1.82002085424823    0.12694889745946    2.50297097701067
O         2.31474876462254   -0.89328312298606    2.55660290803661
C         1.44336493086898    2.29337639823134    4.30126058993686
O         1.69118984692944    2.53895208471574    5.37575620840602
H        -1.55539223420882    3.75321800818070    2.64988677063308
H        -2.15654359472728    6.13761437331217    2.45007484554053
H        -0.36382791089772    7.78654469034744    1.87318392848821
H         1.92765031518449    6.96441705369712    1.52211432930653
H         4.10660366403164    1.35672328878597    1.85480365036244
H         6.13772966847369    2.61866531636604    1.24781170957938
H         5.96366271346034    5.09404897137275    0.91968077653958
H         3.77349010566518    6.17325009995437    1.21788398862023

