62
CSD_code = ZIDZER | q = 1 | S = 0 | Stoichiometry = C20H33O6PdS2(1+) | MND = 4
Pd        2.28865320270622    3.60686391376089    1.99649262562090
S         0.51965386987032    4.05066301551159    3.45052972536395
S         3.94397286606356    2.74051746019498    0.62159735835176
O         3.49474208379251    4.48888680549689    4.23997029202333
O         5.01136345297430    5.42347940109109    1.94065697929388
O         4.23897080926714    5.70276978023435   -0.81705636357439
O         1.64104736873921    5.02828156026482   -1.42930662383867
O         0.79586490385163    2.69648025486524   -0.03181226787187
O         2.23881358016845    5.76787647288363    1.28728966445200
C         2.07966546695426    1.72854338642883    2.59799250527928
C         3.05273614171447    0.76977316315349    2.32669162965585
C         2.87688976235268   -0.54391449520750    2.74760449475892
C         1.73132251494017   -0.90415328602007    3.43451206175381
C         0.74066294868772    0.03276123758902    3.67255422890223
C         0.90173142780807    1.34381894912377    3.23996562430277
C        -0.18660801725278    2.36076604423288    3.40358348930689
C         1.34885229844823    3.91916331734877    5.08141682807289
C         2.51654239791067    4.88362187053278    5.17841775257543
C         4.66244400212262    5.27686886914128    4.29593536466821
C         5.56590030288985    4.89534005666567    3.13076227369738
C         5.92738848745074    5.50716045960906    0.86703383554921
C         5.32471931352283    6.38164479063803   -0.22495681123268
C         3.49166901858984    6.52356377013388   -1.69019831556583
C         2.44967118171685    5.66479566419832   -2.39468656563326
C         0.65383966884131    4.19648098596148   -2.00259767412316
C        -0.05751548632970    3.41947547398899   -0.89249080713800
C         1.59838239654842    1.68361921420949   -0.60994232729651
C         3.04689536088945    2.12670775696923   -0.84588987692608
C         4.26126700979118    1.18629696373555    1.54659891911296
H         3.63697549029452   -1.28060166174107    2.53337102358296
H         1.60241154617720   -1.92102667840254    3.76997120678365
H        -0.16640554365091   -0.25424309264072    4.18332822382447
H        -0.78482823155015    2.21071144360472    4.30366320008051
H        -0.84680700661468    2.35521353500718    2.53269379513404
H         0.60427115905135    4.14603630670440    5.84408399068155
H         1.70917658113375    2.89492707763814    5.18803056368476
H         2.93541218671225    4.84454294992630    6.19597169584618
H         2.18355034042220    5.91318248812992    4.97576992476456
H         4.40559992565217    6.34307435641244    4.21924990632598
H         5.18884396869510    5.10216410731779    5.24577608899796
H         5.63919466732705    3.80075681098212    3.06530094269842
H         6.56648012752320    5.31502744696453    3.29717381968761
H         6.86390123038845    5.96752001782752    1.20982797191142
H         6.14335566650603    4.50922296256926    0.46598770999090
H         6.09150263957032    6.60370443432944   -0.98017126416058
H         4.98502474327044    7.33054693989682    0.21536452290307
H         2.99864573850685    7.32911815435942   -1.12611936811179
H         4.14453594070711    6.97923431271819   -2.44722207683504
H         2.95544951028779    4.91083958087802   -3.01570804928779
H         1.83713337909854    6.29959968974582   -3.04939275938240
H        -0.08773686885152    4.79970283556518   -2.54506964068304
H         1.11847443188006    3.50660300852322   -2.72303071108182
H        -0.79000713311320    2.74594244496917   -1.35982526093430
H        -0.57321652488457    4.12125720579812   -0.23185240507050
H         1.58434146541727    0.84254038169276    0.09403657792073
H         1.17175514088515    1.34569048153049   -1.56235706246123
H         3.09440114129138    2.97186650175427   -1.52955653100653
H         3.62794158871553    1.29985733217948   -1.25427811028999
H         4.58830059472126    0.42482900591229    0.83680197555831
H         5.09698183391469    1.42083074421101    2.21118841642202
H         3.19597912712252    5.91614247323782    1.35783920420270
H         2.05032280835987    5.62573354566713    0.34358445876889

