43
CSD_code = ZIFBOF | q = 1 | S = 0 | Stoichiometry = C12H24AgS6(1+) | MND = 6
Ag       -0.25874780176214    5.95943523500778    2.62297615089516
S        -2.74200069233348    5.95846470832739    3.85176086799755
C        -3.60812547612580    7.40532759705668    3.15252510304835
C        -3.24850267732252    7.85422755595083    1.74539181316429
S        -1.48470464076882    8.11862544628436    1.35825771612812
C        -1.00708183784434    9.47678046253779    2.50071421251975
H        -4.67586512870807    7.18653179935755    3.19323270178703
H        -3.39600718626656    8.19291659428617    3.87670831454390
H        -3.76335198144984    8.79344698050542    1.53573593251042
H        -3.55533288843871    7.11860591252753    1.00199082297431
H        -1.30389509398809   10.41179915590735    2.02384006059801
H        -1.54758636955462    9.35158497064011    3.43728651307741
S         2.22450000445895    5.95846311236711    1.39421078272236
C         3.09062539213227    7.40532650196739    2.09344553670920
C         2.73100063781825    7.85422649436017    3.50057799183010
S         0.96720053586140    8.11862244634029    3.88770275365701
S         0.96607133202356    3.80027474714425    3.88869875109141
C         2.73012638096863    4.06510199599690    3.50296701233035
C         3.09090902635172    4.51287357571268    2.09577074403739
H         4.15853453452578    4.73237015027466    2.05595001654120
H         2.88010743375315    3.72440091377270    1.37217812487986
H         3.24523667922560    3.12632744008074    3.71397246296074
H         3.03583821390930    4.80155278630576    4.24601335134857
C         0.48947111851224    2.44201746589099    2.74592277259277
C        -1.00697605445889    2.44201442031613    2.50003567109351
S        -1.48357779079397    3.80027301707222    1.35726171898057
C        -3.24763015544200    4.06510098709767    1.74300626513141
C        -3.60840804191902    4.51287315633096    3.15020382447191
H        -4.67603360411741    4.73236856955894    3.19002944259737
H        -3.39760219407533    3.72440071150130    3.87379534699212
H        -3.76274197662511    3.12632687636722    1.53200255613650
H        -3.55334532940778    4.80155139796305    0.99996104171272
H        -1.30334730514774    1.50701931690805    2.02283192428844
H        -1.54830879742014    2.56714151373518    3.43613999844893
H         0.78584569730626    1.50702177191721    3.22312322439244
H         1.03080369622799    2.56714916937806    1.80981907054221
C         0.48957721693532    9.47677834142275    2.74524771632658
H         3.24584819647082    8.79344684350231    3.71023400766451
H         3.03782978716477    7.11860510378288    4.24397977686832
H         4.15836535756206    7.18653174400308    2.05274007410348
H         2.87850761988093    8.19291442823920    1.36926089151431
H         0.78639211626455   10.41179687842915    3.22212106969130
H         1.03008204661676    9.35158170387192    1.80867586909827

