83
CSD_code = ZIFHUR | q = 1 | S = 0 | Stoichiometry = C36H40CoO4P2(1+) | MND = 6
Co        8.57547830620418    5.17352840633658    0.00000119369441
P         7.67240327313616    5.00583133101728    2.08789037449863
O         9.66658086131642    6.61928910485021    0.52056898678806
O         7.17654666067256    6.33027586950317   -0.51877022339630
C        10.37483548444419    8.77085223968630    1.18375082789934
C         9.34339596827664    7.84102072682408    0.60167135247081
C         8.12127966641203    8.37519239955100    0.19504780813926
C         7.12268720366851    7.58882342679460   -0.37555859929629
C         5.87231915821327    8.26689616153808   -0.87268617473098
C         7.61953973355793    3.28290723933524    2.66385249717126
C         6.56171175786970    2.46160370341458    2.28225129017174
C         6.54917357668732    1.12926096028462    2.65178430283913
C         7.59245699904238    0.60229319237237    3.39558148138308
C         8.64954254845690    1.41448006962235    3.77198298145589
C         8.66876182200874    2.74795161431075    3.40474687171906
C         8.54261362812096    5.88120894704537    3.41959954593218
C         7.87545342245295    6.53683235718448    4.44848587956676
C         8.59815974080752    7.17609351552560    5.44106549345407
C         9.98295300341297    7.16902444864081    5.41380365586688
C        10.65145839699539    6.51985537497429    4.38786387672237
C         9.93648367795919    5.87914356089027    3.39283571550760
C         5.92770992674865    5.54551342638879    2.19061732466042
H        11.31944444661307    8.24889308568606    1.30502071143064
H        10.03578332766933    9.11502040773635    2.15928610468663
H        10.50730774597417    9.63778085533719    0.54223696098342
H         7.96009620811607    9.43546009773596    0.28709678499377
H         5.15241348049179    7.52481929985933   -1.20617583242605
H         6.12401512300867    8.92199786060433   -1.70411102508067
H         5.43447900963413    8.87543178556762   -0.08536655265916
H         5.75025158534887    2.86324101242504    1.69410098437184
H         5.72137317435745    0.49977850899160    2.36110924051123
H         7.58011168995136   -0.43767794883863    3.68341116870710
H         9.46085519845054    1.00831175353352    4.35752722465644
H         9.49335506149804    3.37884235347816    3.70301054249987
H         6.79707662112729    6.54781075937887    4.48660832072599
H         8.07639490581372    7.68064934079343    6.24018174012481
H        10.54001229319443    7.67053203071312    6.19027376732502
H        11.73097944393336    6.51583503061557    4.36481749576061
H        10.44609550670076    5.38881145447785    2.57542479522044
H         5.45033915036705    5.13658609357800    3.08039764429769
H         5.40723626075605    5.19941926813701    1.29902690863473
H         5.89327561283688    6.63409304578166    2.20739410709621
P         9.47858990764533    5.34120211340076   -2.08788840981518
C         9.53143940733347    7.06412970065975   -2.66384522965761
C        10.58925200284436    7.88545349894823   -2.28223845896254
C        10.60180501453366    9.21777981872421   -2.65182888282320
C         9.55854960889309    9.74471393529396   -3.39568970287407
C         8.50147352233365    8.93251369676513   -3.77208607338192
C         8.48224119229959    7.59905777059979   -3.40479395473999
H         7.65768274653864    6.96814416209741   -3.70310173146026
H         7.69016546366093    9.33866325066497   -4.35764870495556
H         9.57085814605464   10.78469666591069   -3.68347889552199
H        11.42956234760031    9.84728951779237   -2.36109330781308
H        11.40071587088493    7.48382884757545   -1.69408649676337
C         8.60846299046000    4.46577392537389   -3.41961223542818
C         9.27567826247624    3.81008338046401   -4.44841743589559
C         8.55302446576549    3.17076843113185   -5.44099887040699
C         7.16823061880657    3.17785828414135   -5.41382139247860
C         6.49967131456507    3.82708897020033   -4.38795649277473
C         7.21459326458253    4.46784588981428   -3.39292185765484
H         6.70494125963282    4.95824913578856   -2.57557777675159
H         5.42014910923321    3.83113761500769   -4.36498339481864
H         6.61121118032781    2.67630552239632   -6.19028978563306
H         9.07483251244432    2.66614682813732   -6.24004459451743
H        10.35405702480890    3.79907828197061   -4.48646480499308
C        11.22329831240934    4.80154955226839   -2.19049924070470
H        11.70070432271770    5.21045469007009   -3.08026983983727
H        11.74372593757978    5.14768157993521   -1.29889672175632
H        11.25775484354824    3.71297044909217   -2.20723967755467
O         7.48438327492674    3.72778401353818   -0.52065793069832
C         7.80754704895774    2.50604794169567   -0.60177190347563
C         6.77608056421496    1.57619544427314   -1.18378737488051
H         5.83187094108134    2.09855558907793   -1.30640450331400
H         7.11577634089657    1.23072077152912   -2.15862336441527
H         6.64253555021958    0.71004618905812   -0.54143419547077
C         9.02961868049582    1.97183833025539   -0.19505753939700
C        10.02820513260321    2.75818448380974    0.37557469521991
O         9.97439247446551    4.01674078851072    0.51874262835824
C        11.27854794470939    2.08010046923211    0.87274427469625
H        11.99846026217147    2.82218008183992    1.20621531559802
H        11.02682353676327    1.42503847049884    1.70419224372887
H        11.71638926653421    1.47152730989283    0.08545388841231
H         9.19075766967756    0.91156043083569   -0.28706981877428

