44
CSD_code = ZIFHIF | q = 1 | S = 0 | Stoichiometry = C13H23CoN5O2(1+) | MND = 6
Co        2.29857715172353    0.05598418849276   -0.70299714062247
N         3.43560550270580   -1.57648328347180   -0.43769413672862
C         2.75642910035326   -2.74488618499070   -1.03727652975029
C         1.24531250811689   -2.54490041119646   -0.91271018891575
N         0.99015230550891   -1.20824374453411   -1.44272573912992
C        -0.36264427035541   -0.67388718500555   -1.35816447261386
C        -0.25017414809063    0.82345300039292   -1.66889080830239
N         0.90098596451682    1.43432190617882   -0.95756468841825
C         0.55767018086807    2.03992808922579    0.34127753899247
C         0.34235979666888    0.96108018164200    1.40005617507278
N         1.45128639929927    0.00283955674899    1.31507265994076
O         3.52564288584191    1.17248864275148    0.12665223194553
O         2.75902839085237   -0.56646701826880   -3.22299478048382
C         4.13994677822579    2.44051903972613   -1.80042294694249
C         4.01289942067063    2.26918550740279   -0.40009761769260
C         4.45350978681363    3.30349656611844    0.44081096160588
C         5.00607198240897    4.45195503688460   -0.08130461876296
C         5.12903683295435    4.61760303135433   -1.45663894542693
C         4.70522753484180    3.61716472619943   -2.30241918966815
C         3.73107331139415    1.39937066416427   -2.69698484386851
N         3.03862812899577    0.35652569584155   -2.39115837109982
H         3.57321805266771   -1.72210416326662    0.56240709345804
H         4.36887846710658   -1.48495897515903   -0.83846147697359
H         3.01325122104294   -2.77144063260122   -2.09892547430426
H         3.07374796371622   -3.68121517307062   -0.57092199152136
H         0.70847444108715   -3.31971331896128   -1.47123467977316
H         0.93010335821238   -2.59180196788381    0.13372541766218
H         1.28307108584323   -1.22583796029704   -2.43514035182872
H        -1.04088990023493   -1.14991343594123   -2.07586905848382
H        -0.75848117053392   -0.85145187022915   -0.35718809703229
H        -0.07479713004678    0.93257570724763   -2.74179385077025
H        -1.17900740912633    1.34413560714035   -1.41737020565289
H         1.24042605365834    2.20093529297068   -1.54005690855614
H         1.39898530204914    2.66819169867366    0.64203047533738
H        -0.33513688978801    2.66885693870274    0.25580227964332
H         0.27960870592357    1.43509747906579    2.38608104085677
H        -0.60103530318561    0.44076879371866    1.22573978726273
H         2.26706699818653    0.42804676151481    1.75702416970038
H         1.22410827503429   -0.83033777803482    1.85177144970489
H         4.37444186658619    3.16174743662052    1.50812961371073
H         5.34410752029220    5.22907346259314    0.58677381215506
H         5.56092689644779    5.52053801982147   -1.85677078672811
H         4.80458261784240    3.73165123324780   -3.37147331538851
H         4.05232343290520    1.47660883847113   -3.73130349160901

