21
CSD_code = ZIFHUT | q = 0 | S = 0 | Stoichiometry = C6H8ClCuN2S3 | MND = 3
Cu        4.02833578776183    5.50012426562147    5.86353354902458
Cl        3.17676396554462    5.80529609682509    7.75760903640746
S         4.34901374208746    4.32988450497664    3.91303404558212
S         3.27978179327727    4.90002171093947    1.23530722728859
S         4.18741018054905    9.28659676425285    3.85909667830626
N         4.99558694949468    7.04603660497036    4.94007187746950
N         4.03763329315618    6.80378348908688    2.80286524141210
C         3.93181559801855    5.44174949449051    2.75810048395941
C         3.45726797152531    6.55937176254850    0.48966046243676
H         4.40698979717569    6.58564502246594   -0.04426353625248
H         2.63951834133662    6.73299443452763   -0.20357694068192
C         3.43406688467310    7.50516158618921    1.67441906835448
H         4.00288944775580    8.41462721205079    1.46846487943724
H         2.40680882087531    7.78686236768883    1.93523393542641
C         4.45443765955932    7.52723383722165    3.88195899810689
C         4.69058908558752    9.36799534593896    5.60139003949945
H         5.30090149228667   10.25340223652169    5.75728710785699
H         3.78370529534859    9.43037096374385    6.20366393207108
C         5.45396219537127    8.06290337832962    5.85818038399608
H         6.52904414232676    8.19465812547472    5.68708844593682
H         5.30197755628718    7.72168079613900    6.88237508435962

