36
CSD_code = ZIFLEF | q = 0 | S = 0 | Stoichiometry = C13H15Cl2N3O2Ru | MND = 7
Ru        3.69797647725677    0.83962323718855   -2.54177866319598
Cl        2.36713405664543   -0.14629751225158   -4.23204334305360
Cl        5.02736329615886    1.85333962858873   -0.86567647510884
O         6.53684615552991    1.75727565059491   -5.33312537734563
O         0.67125880984354    3.45215772327945   -1.70027285570358
N         3.61502401096252    2.49715318591917   -3.44881818795599
N         5.34090404575639    0.69345006848014   -3.75890901813308
N         2.01618158083605    1.65450104300335   -1.69875140370578
C         4.54693291705675    2.81835486581576   -4.36619221003014
C         4.52173357971115    4.03198531810635   -5.04757603082438
C         3.50237335027258    4.93094618952684   -4.76602631103446
C         2.53952009762439    4.60382833923742   -3.82119511178364
C         2.62763089008993    3.37202821023432   -3.17889265116353
C         5.49474494078224    1.74615640741732   -4.49393625316404
C         6.40659491967204   -0.23476953440323   -4.07703768496774
C         7.21874365875010    0.51226231397763   -5.15834647616475
C         1.75349557484969    2.82658167719331   -2.17758090588066
C         0.99814974885494    1.33214284463127   -0.71975187419033
C         0.08144355882011    2.57564036267556   -0.73623839657594
C         4.36503552062681   -1.17753663136061   -1.86498813863420
C         3.23016113673179   -0.85165402808784   -1.16605070774676
H         5.28884545477945    4.24576445159481   -5.77342635272328
H         3.45838457115757    5.87863230337220   -5.27833135165839
H         1.73182297696363    5.27228576607696   -3.57268970731002
H         5.97951511017529   -1.17088134593523   -4.44659924254715
H         6.99515291318555   -0.44190099876963   -3.17945117604455
H         7.22885968051985   -0.00902919933302   -6.11877003562654
H         8.24487412816363    0.72541249381097   -4.84872686142122
H         0.47389499669511    0.42138881388918   -1.02084167842878
H         1.46448852041960    1.16865176978535    0.25538470850818
H        -0.93747090607211    2.34870042375408   -1.05973937118689
H         0.05129436157894    3.09539586989397    0.22452276752377
H         4.29836424448600   -1.87912287444017   -2.69297198921837
H         5.33371185424488   -1.09292483158776   -1.37821756490354
H         2.28131793515044   -1.29970491110712   -1.45101128690606
H         3.31689583172168   -0.51443709076512   -0.13594278168908

