31
CSD_code = ZIFVUH | q = 0 | S = 0 | Stoichiometry = C10H14F2O4Ti | MND = 6
C         5.29083907288067    0.69481218313581    5.39672229238112
H         6.03563668643398    0.72656978361493    4.60215173115808
H         5.44327142009940   -0.19511171833080    5.99792405041180
H         5.42108249735698    1.58640622362017    6.00744779275607
C         3.91312854042976    0.72687352711864    4.78162453075696
C         3.13192972314113   -0.43114759391028    4.78085986147203
H         3.51625515775359   -1.32702915113845    5.24140072206138
C         1.87011119296014   -0.47456306198749    4.17298434688949
C         1.12022281388060   -1.78596373342538    4.16998385030154
H         0.81181466120614   -2.02205223012527    5.18666837310722
H         1.75412351746544   -2.59248847652834    3.80973613855860
H         0.23642758817386   -1.69818736538769    3.54257254939640
C         2.22695237529505    4.01818487464402    0.27044644281628
H         2.62038968502895    5.01666659029056    0.45193118026977
H         1.54271831685955    4.06848886506836   -0.57265732304826
H         3.05339532842842    3.34962016430309    0.04160814115090
C         1.51719501465888    3.53751899387175    1.51433679012471
C         0.29401160773119    4.12723248647799    1.85433719509057
H        -0.09566909635003    4.91586238950373    1.23062210541131
C        -0.44584710049467    3.71030913775148    2.96503091538572
C        -1.76812977790014    4.37707697022204    3.25641113009195
H        -2.38900188585101    3.70799739388093    3.84794521819577
H        -2.28154147117274    4.66488527384878    2.34373022508551
H        -1.57548269589522    5.27318610303908    3.84546216780311
F         1.41653611614339    1.96185155245196    5.73439083706177
F         2.13857442683453    4.02543692134198    4.32620926341558
O         3.54946328011672    1.81520515655205    4.24325515935837
O         1.33002194582651    0.51636159403437    3.60552475428469
O         2.05521360486006    2.60622409028232    2.17874802655978
O        -0.07792666133524    2.78162610657500    3.74294648486853
Ti        1.74008411543444    2.33764694920505    4.05114504683129

