43
CSD_code = ZIFVAO | q = 0 | S = 0 | Stoichiometry = C21H15N3O3Pd | MND = 4
Pd        2.90317872684607    3.33168334733350    8.23569348817949
O         4.77691965211788    3.63687731245123    8.96202151023637
O         7.53791218590711    3.59697574014858    5.29832893093424
N         1.77827964361783    3.13587397133652   10.08316104334053
C         4.86865168838756    2.93479738176906    6.07396098534984
H         4.79964072422514    1.85053446529566    6.26268102695077
H         5.22071362800028    3.08329624964485    5.04447455784535
C         0.46065900854530    3.12727714284311    9.75168089347799
C         0.10146124181763    3.13211839944713    8.36020206377711
C         7.96110158216853    4.23826432504493    7.60801139219464
C        -0.54920735818378    3.10648754229477   10.75261814016052
N         1.14841767032513    3.14625814087082    7.47071452899007
C        -2.22549069140074    3.07006453563417    9.03163160348381
H        -3.26343863245747    3.04617264769116    8.73378368527938
C         2.13553542788769    3.14744842581365   11.34822854298469
H         3.20080835057772    3.15409955973873   11.55233529948191
C         7.10489635803347    4.23256378388853    8.71876191620298
C         7.19428533477668    3.75699803037190    6.44315087289432
C        -1.90072314073027    3.07863479309216   10.36446394011220
H        -2.66519410434374    3.06566627734509   11.12659733334214
C         9.27564608478544    4.64287306871120    7.72326282051330
H         9.92761406975475    4.64492463798024    6.86399420223994
C         5.79055403114216    3.76219074393074    8.26940430353753
C         3.51234063628605    3.59855382366558    6.31992727948345
H         3.59431960563181    4.68237856124393    6.10096540795946
C         2.40570284585415    2.98450670306501    5.44503694005576
H         2.57630948820708    1.90844945119157    5.32371943230330
H         2.36543585467557    3.42731405724595    4.44539530330342
O        -0.00445450474405    3.16254103234388    5.47618999754246
C        -1.24861432291172    3.09784779448680    8.03618978936614
H        -1.53578585990626    3.09555987654859    6.99783507687221
C         7.55069311475159    4.63502684269234    9.96446358208647
H         6.88850782306397    4.63265026028930   10.81602692997752
N         5.90795613093301    3.49455003682002    6.92512181840549
C         8.87453982471974    5.03887074326343   10.07707479038400
H         9.25217776791380    5.35606711220345   11.03750364332547
C        -0.13067179418604    3.11830194162056   12.09935454055170
H        -0.87700034677078    3.10674513475504   12.88095622170577
C         1.03376011504651    3.12310284357053    6.11159751293303
C         9.72251788515750    5.04282597985954    8.97725684570837
H        10.74626510725483    5.36261822695060    9.09953309487062
C         1.20557679269594    3.14455521631140   12.39759454362587
H         1.55260235452280    3.15725383920010   13.41909416803136

