87
CSD_code = ZIGCOJ | q = 0 | S = 0 | Stoichiometry = C36H48N2Pd | MND = 5
Pd        3.05049981300138    0.21949896820865   10.13310830987845
C         3.50469086074333    1.96560314652741   11.30494943074527
H         2.54853098129797    2.29416481713644   11.71363275986455
C         4.19730677410904    2.79736746976105   10.33319198264781
H         3.71006687482030    3.37712156532089    9.56229206132203
C         5.53098172403814    2.80326357702907   10.63138889849439
H         6.30723227500725    3.30089949937851   10.07341437445970
C         5.74266422243324    2.02988915057852   11.80328607124833
H         6.70230233747895    1.85757035465787   12.26397516452858
C         4.54070552378308    1.53720568095750   12.22735107664214
H         4.36668914810169    0.97926514687733   13.13698164971724
C         4.27848838599637   -1.48207628243883    9.81265684046684
C         3.13240131038723   -1.64638654058129    9.00748455806054
H         2.51613814731077   -2.52364611672072    9.18272450050616
H         3.18130876419873   -1.33331059762763    7.96488324162294
C         5.05962547347217   -0.33510960801944    9.64699380323495
H         5.17253546750093    0.09694528196901    8.65115774021698
H         5.92133850834714   -0.19309189598897   10.28939302840211
C         4.52340466589366   -2.38692587022253   10.99037495972048
H         5.28277828363793   -3.12233100255260   10.71593493795128
H         3.61846281374933   -2.92365546274396   11.27703231292933
H         4.90068751813511   -1.81644832582923   11.84087321520581
C         1.03871724277627    0.54907159664874   10.28462817986034
N         0.30573018773764    1.66089430341437   10.04696431310556
C         0.76519592879108    2.91639569889244    9.55944734434633
C         1.20169201976097    3.01886897500018    8.23582257203806
C         1.28684699182102    1.82211005664039    7.31840555139468
H         0.84411048100641    0.94842928095195    7.81197631016775
C         2.76314097129749    1.50864985516820    7.06015005822303
H         2.85684850013435    0.63618225402681    6.41530089141864
H         3.25915301468549    1.31576134592393    8.02707220689595
H         3.26012528469850    2.34797691489483    6.57893754663322
C         0.52703120407978    2.05606450509026    6.01116120796748
H         0.99120715148891    2.83980139248433    5.41855851461908
H        -0.50364075102400    2.34248658225016    6.21210605788927
H         0.52196825383153    1.14338210250690    5.41913340396435
C         1.59150367892497    4.26709217953724    7.76634910278545
H         1.94497873044339    4.36833834942474    6.75215736254324
C         1.53630048737510    5.38138901717312    8.57860730070091
H         1.84318158067945    6.34398325373264    8.19761834187248
C         1.09383498132701    5.26411032726210    9.88141006170821
H         1.05691958123765    6.14080982978072   10.50804029900581
C         0.70318408121248    4.03651370796880   10.39779781949545
C         0.22351283520860    3.95704025892168   11.83033811450176
H         0.12556799786342    2.90571273891347   12.11986599096758
C         1.21623396313637    4.61327049571720   12.79474119367553
H         2.22563934745686    4.25099125777494   12.61789135522359
H         0.93822261279531    4.38125334221197   13.82073127251734
H         1.21620055749605    5.69404308760831   12.68287947344376
C        -1.14852419467831    4.62542509530855   11.96890508716326
H        -1.08315897052109    5.68092065881106   11.71619882072211
H        -1.50389793832358    4.53769032047284   12.99321781934724
H        -1.88318416347148    4.16659155807813   11.31089961200883
C        -1.01933683146414    1.43796818588537   10.33566801462484
H        -1.76626203846283    2.18983925651928   10.19079121160717
C        -1.11865842386515    0.16486584085369   10.77080477903812
H        -1.96362675880635   -0.39953454928627   11.10722166103032
N         0.15071380587108   -0.36374391474267   10.73823588134168
C         0.41360124902002   -1.72258335726713   11.07222194853048
C         1.13403384684518   -2.03658035691606   12.23503544086829
C         1.71766028251628   -0.94342275166505   13.10676803567771
H         2.29002130080007   -0.26467099706165   12.44105696031809
C         2.68404614044260   -1.45350312422808   14.17508290591322
H         2.16366877090757   -2.03778961400930   14.93236632626575
H         3.14457626772614   -0.60256015289389   14.67245297156902
H         3.47566505596699   -2.05655244689654   13.73953038657812
C         0.60790127670064   -0.14877339366302   13.80664899931226
H         0.03469609895518   -0.80607796044646   14.45941846151661
H        -0.07896540449927    0.31424749692515   13.10418813129047
H         1.04909278609913    0.63877122101925   14.41340908789609
C         1.28874719424365   -3.37981800620780   12.55418352937403
H         1.82381057985721   -3.66331071158473   13.44504251029369
C         0.76585586188082   -4.37399781715006   11.74783163105776
H         0.90275691192446   -5.41090059619737   12.01724003921042
C         0.07333031434832   -4.04508725667231   10.60115521971627
H        -0.32512740983479   -4.83006159393825    9.97728050373042
C        -0.12180922892179   -2.71627516851169   10.24515039500396
C        -0.90497846851015   -2.39684179550312    8.99003903419554
H        -0.93100388120825   -1.31407295980705    8.83841447200609
C        -2.34830803548103   -2.89059546008962    9.12802577157254
H        -2.38088803112605   -3.97449747027411    9.20240768530206
H        -2.93107206543551   -2.58953756038262    8.26033193134464
H        -2.81777741280719   -2.47628535986909   10.01796858704082
C        -0.24740848716726   -3.00831200889954    7.75091896129676
H         0.75792677978692   -2.61539623111379    7.62422168846066
H        -0.82818023865922   -2.75885929606068    6.86536995666750
H        -0.18878333052713   -4.09091338824464    7.82632277623250

