98
CSD_code = ZIGDUQ | q = 0 | S = 0 | Stoichiometry = C45H50N2Pd | MND = 7
Pd       13.18291031282188    7.47104769814233    5.32218818396037
C        14.51785168779733    9.49119130862779    3.78061562391037
H        14.11857201234519   10.43672032970390    4.11541892094437
C        13.68109360778232    8.33913886014000    3.45040265815500
H        12.76154967313320    8.53144381500924    2.90003262343285
C        14.61636841075630    7.38656313242462    2.84156768065642
C        14.39862264425660    6.18048547437850    2.19225145169372
H        13.39707027826240    5.78445616627202    2.09998573877239
C        15.48078498854627    5.51112588173214    1.64729681361322
H        15.32652786700448    4.57297475175621    1.13191089167219
C        16.76939543344461    6.02644749225824    1.75263693042486
H        17.59688700580905    5.47639180861506    1.32512881637963
C        17.00263875034597    7.23559672293896    2.38238657768092
H        18.00397156364649    7.64067920475128    2.44300498111656
C        15.92431094406488    7.93297096519941    2.90988070350227
C        15.82358251781743    9.23577646732899    3.50593938214423
H        16.65684026740717    9.89606218204002    3.67770021453154
C        14.45636058120876    7.15348898841872    7.09810376397128
H        14.67806844504055    7.98879222985250    7.75240490669006
C        15.17505319240588    6.78364169668889    5.93966243428467
H        16.11784463818269    7.21807302318095    5.62990643270825
C        14.76313113409484    5.44063148966689    5.58716524317437
C        15.31294930956331    4.48655963708633    4.73802383123077
H        16.17336629945989    4.72659268414986    4.13165583042904
C        14.76698275378546    3.21602869984321    4.72321470464717
H        15.19883523811388    2.45766661104322    4.08579150449412
C        13.68807517876509    2.88539279160858    5.53837322471603
H        13.30463289250793    1.87404263779783    5.52507928797641
C        13.11594273227918    3.82033044345062    6.38299637575787
H        12.29318928150939    3.54139110283596    7.02943659681917
C        13.64689197413428    5.10579565269474    6.41827217939799
C        13.39447689697854    6.24660978101191    7.27584684636055
H        12.75178630092550    6.22113067409022    8.14573751240230
C        11.22164133949348    7.96871015546495    5.10758902232212
N        10.52516271973494    8.49649163347009    6.14057634703712
C         9.25633330383025    8.84355227597822    5.75130869247890
H         8.55158897869288    9.28486743062434    6.42547559855075
C         9.15521898737734    8.52416312452789    4.44390597728611
H         8.33503728132479    8.61160623000700    3.76242985357610
N        10.36471006115222    7.98801962625315    4.06327706841455
C        10.99092783800935    8.57356719948472    7.48231228424665
C        11.95192479851098    9.53065463324030    7.82703340800425
C        12.41223509811592   10.58252026260816    6.84106252473541
H        12.14324329423866   10.27049407954476    5.82284938151584
C        13.92701304249642   10.78773758519076    6.86106697742323
H        14.29257138256366   11.03235512224029    7.85474290071293
H        14.19572018341969   11.60664109262824    6.19718910444142
H        14.42250672854691    9.88113375085468    6.50471301410774
C        11.67895353313554   11.89122685673383    7.15748576958882
H        10.60032158644126   11.74831093331415    7.12173738644763
H        11.94858995705785   12.65748372606321    6.43428792168556
H        11.94349564365176   12.24586081626829    8.15115510031382
C        12.38056935298004    9.57311056633636    9.14844437885321
H        13.10900871740520   10.30832116859947    9.45249810608624
C        11.88172435179107    8.69292315420263   10.08867760802557
H        12.23819050578315    8.73334049793295   11.10725424180846
C        10.91347975387096    7.77417786734543    9.73424665925064
H        10.51925543317763    7.10374678301158   10.48232922592424
C        10.44184791213466    7.70161568723831    8.42988992721362
C         9.36185932111734    6.70128738552126    8.08235529714566
H         9.08699353952728    6.80875520250902    7.02973382735160
C         9.85990712335007    5.26800273059231    8.27191425848937
H        10.70213180392396    5.08133192273135    7.61073139582372
H         9.06593173831835    4.56425510849520    8.03024356199830
H        10.17517023638710    5.09083633244156    9.29722658053015
C         8.10539462023578    6.95932143995278    8.91853348897108
H         7.30380959281163    6.29742595796680    8.59821748280807
H         7.76997245375456    7.98827003835947    8.80236152886072
H         8.29337543283304    6.78022694535845    9.97375535686048
C        10.56758206751656    7.52043921409215    2.73246292595091
C        10.49562456005865    8.44670497920626    1.68532778998397
C        10.34261808034654    9.93438988829152    1.92047481539712
H        10.36766700397803   10.13905873471785    2.99532826825593
C        11.49545868012277   10.71515170818121    1.28218861767939
H        11.48501716675447   10.61836341278007    0.20013285722914
H        12.45465567708562   10.35748975143323    1.64818886599055
H        11.40391927431251   11.77051934541398    1.53000422087073
C         9.00350672531454   10.43157705650322    1.36740560818183
H         8.96265785264324   10.30224767899200    0.28900473528692
H         8.87671530590919   11.48847071956724    1.59072108575588
H         8.16940499530773    9.88620174008728    1.80393922585441
C        10.59242194199499    7.97474442647248    0.38286061933222
H        10.53956176820115    8.66826416100004   -0.44134135881185
C        10.75503355146446    6.62882400744234    0.13020216719105
H        10.82181915502143    6.27490455613146   -0.88752343377208
C        10.84463103243491    5.73101286009773    1.17711238531029
H        10.98404351566218    4.68695260440853    0.95331261407126
C        10.76130083859853    6.15200472016728    2.49787439815110
C        10.86646735701622    5.17044011043910    3.64718094234966
H        11.58476716018129    5.58770048792288    4.38257893003797
C        11.39322021237954    3.79745715338342    3.23594581199905
H        11.52519116853271    3.18890164119713    4.12631139855897
H        12.36061359768696    3.87603715109400    2.74754277862545
H        10.69313296356221    3.28481211540218    2.57847953509119
C         9.49877724458127    4.98215555867275    4.31510727227335
H         8.79430214562171    4.55866983993371    3.60051058230248
H         9.08435172520150    5.91678784163980    4.68278742511723
H         9.59045477111865    4.29713080751051    5.15434878919802

