81
CSD_code = ZIGKOS | q = 0 | S = 0 | Stoichiometry = C32H43N4ScSi | MND = 5
Sc       -0.90547537590606    3.34039556911651   10.50079950321283
N        -1.91611742873684    3.54550292417749    8.63870359746447
N         0.33573393074125    2.39853194787204    7.70127142014730
N        -3.11769866202216    3.08562243504479   11.92320698626484
N         1.66231771573901    3.18414112018995   11.20762487661116
Si       -1.43073689815778    2.50389367252375    7.37287368984177
C        -1.59844275502739    3.21547080598149    5.59947829946683
H        -2.21119214558041    2.57594466465606    4.97138978930021
H        -0.63428548084517    3.32509495765108    5.11187809305520
H        -2.07503932562171    4.19097464927028    5.62238062610249
C        -2.30498065659454    0.79858407697820    7.31515759066545
H        -2.18631094890521    0.22078408108994    8.22444403659353
H        -1.96506276177165    0.19120864105631    6.48363586154509
H        -3.37013938932046    0.95843651092704    7.17764535403400
C        -3.04103032937846    4.33272200034784    8.54374609316059
C        -4.15265824004268    4.00826132390218    7.75164679051122
H        -4.13637865059661    3.09071315608209    7.18555729635789
C        -5.25722837443692    4.83282890350586    7.69219363266518
H        -6.09836120511880    4.54827696089960    7.07534984966540
C        -5.29943440085516    6.01727078167651    8.41005371397006
H        -6.16586602561268    6.65886496213435    8.36011969372373
C        -4.20484193321842    6.36964232460516    9.18350171167869
H        -4.21325922285763    7.29992279489474    9.73535492837060
C        -3.09726340304810    5.54813953317246    9.24920162300550
H        -2.22843327943232    5.84632693126505    9.83730590894828
C         1.14663817276219    3.50810164795302    7.53039888364410
C         2.43767665171619    3.10175457354315    7.34549776570461
H         3.28896173276042    3.73604401196648    7.18170695267457
C         2.44328533594055    1.69009360037646    7.40347065481674
H         3.29961704874093    1.05032400663179    7.30539595620727
C         1.15346528414122    1.29089235792174    7.61353550397855
C         0.65620501502430    4.91471829965370    7.59233443968241
H         1.49756032007016    5.58742772748046    7.43702277944297
H         0.20336271907507    5.12887352082109    8.57022893077851
H        -0.09414479169183    5.11339970466627    6.83037219457939
C         0.68071264897261   -0.10923006640060    7.78723983313017
H         1.54327675454449   -0.75702223456656    7.93007945513599
H         0.13705661130477   -0.46009625874985    6.91194792907414
H         0.03081332055825   -0.19340423987616    8.65545332196249
C        -1.17335454988771    1.18522429078882   11.08293145326725
H        -2.07533432896859    0.90868576279684   10.51507722767404
H        -0.45051925682491    0.36842148363124   10.96179877994285
C        -1.48520153933050    1.35669088130154   12.50992160163910
C        -0.79125232513127    0.64947167830268   13.50001823877298
H        -0.01860135110499   -0.04568577965642   13.19726039715920
C        -1.06415554509443    0.81033162974325   14.84236646940548
H        -0.50641037684102    0.24859266104580   15.57708655283564
C        -2.06223044239088    1.67928113312269   15.24295448986492
H        -2.29733362630919    1.80133743078282   16.28915074116003
C        -2.76053205041117    2.40486967178307   14.29022645766768
H        -3.52606858038999    3.08759235643644   14.62543524483058
C        -2.47830937212490    2.27114649193348   12.94182302809713
C        -3.62169192263727    4.36262435488002   12.43512853331171
H        -4.51742204440652    4.23496613720933   13.05814797372791
H        -3.89240246767558    4.99311897027022   11.58707820761914
H        -2.84940990658327    4.85263614178710   13.02390198091557
C        -4.25406879949314    2.37469239964791   11.32359546457780
H        -3.97087855516107    1.36724642698287   11.02955401371094
H        -4.59793807628268    2.91807130176383   10.44227191546032
H        -5.08560641959027    2.29471550205922   12.03793553126678
C        -0.30000008923013    5.18914671952340   11.64563102465510
H         0.46225125237935    5.73084678239556   11.06197387140098
H        -0.99054766452696    5.95152970665581   12.03183881761670
C         0.32143359618091    4.48716321895229   12.78472632078366
C        -0.07462084715885    4.73510352084964   14.10414371285003
H        -0.84224641161065    5.47618138131943   14.28643830152077
C         0.48722010194295    4.07001662110637   15.17432735795664
H         0.15396650008865    4.28664480834689   16.17847819731403
C         1.48778010981905    3.14033611276630   14.95984598670830
H         1.94762015451959    2.62689307516316   15.79023695654181
C         1.89820485603627    2.86389958484761   13.66528291880023
H         2.67387559908318    2.12827880871841   13.51660607132169
C         1.32096273353429    3.50494174502697   12.58297205311178
C         2.68830520639259    4.11381473012853   10.71756807997631
H         2.38539268182205    5.14578812084030   10.87472008993731
H         2.84559930439624    3.94312780971199    9.65263919170274
H         3.63835049331581    3.95887365555403   11.24749430504947
C         2.19102048071777    1.82615388679461   11.03929727423999
H         3.22680927378308    1.74099005532876   11.39464291625755
H         2.17899665079204    1.57660140638949    9.97676019181864
H         1.57424597663552    1.11880494203102   11.58840649091856

