42
CSD_code = ZIGNUY | q = 0 | S = 0 | Stoichiometry = C17H17F4FeO2P | MND = 8
Fe       -0.24526356103798    2.74553247420717    4.98097799518204
P        -2.38740062567319    2.83224858623304    5.35316154223400
F        -1.25231607595174    5.36874891773397    5.82049711520671
F        -0.57605958229669    7.12092379031117    7.75361931584299
F         1.38080846106098    6.46138312471106    9.57379725348071
F         2.59574721580419    4.07873254504321    9.41488925768134
C         0.27034743005996    3.74143822604549    6.58883959464543
C        -0.30128872674000    5.00135183272301    6.72254736765784
C         0.03123503524483    5.92520927132774    7.69728183450313
C         1.01562771375181    5.59111486706621    8.61884374325710
C         1.61714717961890    4.34524218296723    8.52912742450908
C         1.26294033785531    3.42535239355978    7.54035093442963
C         1.94983072947990    2.11274040688430    7.42760562178281
C         2.47185053186985    1.46638021541518    8.67881127306682
C        -0.26278061974069    1.23386082247000    5.82979139606914
C         1.62742588433077    2.93942092351733    3.79650293189140
C         0.95417831312532    4.18821074648958    3.74859280091689
C        -0.29575375123605    3.98819263589010    3.15408817326475
C        -0.41527503743969    2.60086653274554    2.83852797208282
C         0.79490038438006    1.97218131665329    3.20439523470363
C        -3.01299395568676    3.11377844277484    7.05576046722565
C        -3.22451661459101    1.23666863727927    4.98201626782560
C        -3.47868274758096    3.94305856055475    4.37824058524256
O         2.05447327100322    1.57392373538759    6.34439051964703
O        -0.37967160281390    0.22110795331115    6.35649769501781
H         2.60036828399954    0.40258666994574    8.49627837821989
H         3.44164664240499    1.89154472662342    8.93274030550395
H         1.80100865657803    1.62759419698066    9.51796139032027
H         2.63946283832061    2.78121042795934    4.12340163693664
H         1.36801037837894    5.13685424345214    4.04828970397149
H        -1.00073622254022    4.75854351204569    2.89359386417360
H        -1.19823589287058    2.16357255928602    2.23883337017496
H         1.05372726735426    0.94246333622813    3.03067572898113
H        -2.45395759475973    2.47900349206219    7.74233008366386
H        -2.87185083266668    4.15268107104453    7.34154067863909
H        -4.07368071924152    2.86749323773190    7.10701928891623
H        -4.30658062279502    1.33923194662404    5.05856406629380
H        -2.88281704160809    0.47623312582870    5.67955950231807
H        -2.96069162509532    0.92058794485915    3.97473324731891
H        -3.40381016825375    3.67546575748172    3.32603916100740
H        -3.17889063702875    4.97807376019207    4.50521449428774
H        -4.50938229698062    3.82009085035382    4.71027078189976

