52
CSD_code = ZIGPIQ | q = 0 | S = 0 | Stoichiometry = C25H19Cl2HgN3S2 | MND = 5
Hg        1.82128825441668    7.16141898078256    8.96777410476537
Cl        2.52864020053255    9.33239471362563    9.15349145369756
Cl        1.87695011712313    4.73586906125591    8.69148147093684
S         0.88076465549362    7.70364798558217   11.77802360580285
S         0.24227995068650    7.07819384324433    6.47827180371265
C         4.25320075356425    5.46204015056065   10.98445999142627
H         5.00259158882826    6.07492739621503   10.49867969803470
C         4.52801412955593    4.12487782977757   11.31214290097293
H         5.49644396877981    3.70629326379141   11.08515368680627
C         3.53801156567425    3.36708089070536   11.87587077781629
H         3.69038981424093    2.32097132065739   12.10277691527944
C         2.28874303032146    3.95760856547602   12.15482560106608
C         1.20010440145073    3.25757167672482   12.71239564314689
H         1.32008262068916    2.21041882541928   12.94867559038119
C         0.01362939777878    3.89771484623875   12.94127499744244
H        -0.82391847650614    3.35900961042314   13.35952060963543
C        -0.13704387661351    5.26276123996802   12.65898456392503
H        -1.07642848774532    5.74561346204838   12.87826227023510
C         0.90139935531326    5.97066164982398   12.11203595193748
C         2.13464847858178    5.32879488542804   11.82718996010043
C        -0.87273685298968    8.07990628210419   11.41490756681893
H        -1.42790992415575    8.12559879145188   12.35163150637715
H        -0.80672813876827    9.08425365934462   10.98892971030409
C        -1.53450032844514    7.15927299899203   10.43978402274379
C        -2.81378995705146    6.69102386653458   10.72146373602374
H        -3.29654109850259    6.95538104419798   11.64960790924703
C        -3.45903667945743    5.90129218202532    9.78671302688254
H        -4.45359883273088    5.52563346939316    9.97544048278026
C        -2.80752668564102    5.61257632611242    8.60379819042873
H        -3.27917636649724    5.00806609975416    7.84526777432398
C        -1.51860752305554    6.10306145273626    8.40079845298377
C        -0.80181800659904    5.72319050993273    7.14801728907427
H        -1.51288285552662    5.41857069278458    6.38115584612023
H        -0.10737525337160    4.90891059859729    7.37808511185663
C         4.52161051447802    7.23738367063973    7.03293093516601
H         4.79420407706061    7.91360269663631    7.83471139785378
C         5.50959495322023    6.60751842975306    6.26024674500547
H         6.55159102236354    6.80058706632302    6.46243810066327
C         5.11938696366284    5.73561680510065    5.28158505012588
H         5.84280129636149    5.19956366212467    4.68302481588969
C         3.74481874950060    5.52864333971015    5.04363126193906
C         3.26883149799752    4.64092816591849    4.05919480826077
H         3.98463368188348    4.09109093142368    3.46562841859585
C         1.92505179786759    4.48538688501075    3.86382106707345
H         1.55535406679583    3.80159433245250    3.11461510839033
C         1.00922648718638    5.23092555453946    4.61695231509390
H        -0.04648252691430    5.12487709401761    4.42058537399850
C         1.43737710029947    6.09807831918722    5.58955989489682
C         2.82169810614943    6.25484982494039    5.84689255024023
N        -0.90198131723456    6.85390891579204    9.30925259240158
N         3.10548850475493    6.04198382384766   11.21993708908218
N         3.23853208520511    7.06235231084425    6.84340025223051

