56
CSD_code = ZIGRAK | q = 0 | S = 0 | Stoichiometry = C26H25ClIrN3 | MND = 8
Ir        3.99305724621139    3.64676528892907    3.88332018029569
Cl        5.88120796731547    4.63378740115386    2.89282943588821
N         3.43459457558198    2.97495477180024    2.08093930949780
N         2.53069742943973    1.65855220531177    0.56105186243653
N         1.42878522770826    0.52925059723910   -1.13536821484955
C         3.21769793616420    3.63784084670086    6.00027695591840
C         2.01577233410139    4.85384133533631    4.41771286663334
C         2.12106315187405    3.56951943754488    5.08321304734813
C         1.04279927017650    2.53131296198092    5.10387659459439
H         0.28982993056776    2.78566658711896    5.85296465495636
H         1.45134253792232    1.55376974859470    5.35175183152543
H         0.54561825212680    2.46084294030794    4.13795867528355
C         3.10932798554649    5.62716380890288    4.79863720798387
C         4.99249050363097    1.88667128536439    4.06919306214318
C         2.52571976637189   -0.71543582365461    0.63570573879242
C         4.70366597485939    0.64896421578298    3.45551201694746
C         3.74955343250972    0.52538653093832    2.35281213947763
C         3.90533230311780    4.85521009065970    5.74121675002016
C         3.26415203573037    1.70575151881154    1.71963029215790
C         2.27272991964263    2.94279060025166    0.18035844936610
H         1.72096565514482    3.16083951414617   -0.70923817587566
C         2.14243210402676    0.47637394788550   -0.02026373282371
C         6.39013545005807   -0.43578967329780    4.82658489246194
H         6.91973475053985   -1.33214764763175    5.11386546969110
C         6.70420368449809    0.78376759411297    5.40550668012855
H         7.48748482740764    0.85029308962002    6.14645948688766
C         0.86733735407248    5.25624945231655    3.54866070325591
H         0.00178055326704    5.49934759035456    4.16855467746849
H         0.57794028528509    4.45018761765749    2.87484545721916
H         1.11134376173066    6.13072344663864    2.94962416172875
C         5.02640027257362    5.44901706375265    6.53728269244279
H         4.63770609205675    6.20790228684632    7.21949912463185
H         5.75133559742092    5.92450923938640    5.87877435967607
H         5.53832940358185    4.69113438387560    7.12560019905086
C         3.43290384962903    7.03272041438991    4.41263063358548
H         2.71272522080651    7.42379991652576    3.69771644236117
H         4.42570556611764    7.08170918644738    3.96516059185886
H         3.42915203214614    7.67520354842511    5.29437236431817
C         5.41580480352737   -0.49144373165840    3.85727715300665
H         5.22144008456593   -1.43988253378334    3.38169030278274
C         1.34908945877866   -1.85575812907879   -1.12316099751272
H         1.00562728246090   -2.75753306857138   -1.60471533317559
C         3.49525609529529    2.65399281611175    7.09334860183220
H         4.52192974260137    2.72829651148610    7.44108803867029
H         3.32477523387240    1.63274847519976    6.75907995476088
H         2.83149421727058    2.85308653086398    7.93699667956671
C         3.32702175514873   -0.66385104393210    1.80551108222702
H         3.60639946737303   -1.60894908601151    2.24095770045358
C         1.04443699622404   -0.61076063250971   -1.67330824664292
H         0.46577944927027   -0.52429732583736   -2.58206447677114
C         2.83642945766752    3.74293662494284    1.12907582750014
H         2.86422586789302    4.81324456978423    1.17705825856518
C         6.01468166768563    1.91580546945144    5.01953157333699
H         6.29437870595986    2.86350395112301    5.45772588505585
C         2.09233967217193   -1.90974514772070    0.03478919930787
H         2.35133580124777   -2.85544157039007    0.48808991255379

