35
CSD_code = ZIGSAJ | q = 0 | S = 0 | Stoichiometry = C12H14N4O2PdS2 | MND = 4
Pd        0.00049295532788   -0.00029642349358    0.00080364986635
S        -0.22753421840590    1.39548335588532   -1.88426027721487
O         0.10854457004941    3.96053550807475   -1.55401692444247
N        -0.45415170658114    2.79905436117785    0.33788253962529
N        -0.75187938193889    1.60795782226796    0.91234358718108
C        -0.13156238565134    2.89402573654563   -1.05063283222773
C        -0.81624567700502    3.82611714288503    1.16028363972913
C        -1.36538570201167    3.24847872071688    2.28103781976978
H        -1.76341979724155    3.75683548906722    3.13492860374965
C        -1.31503575472456    1.85805345663214    2.08642817494533
C        -0.61908550675455    5.25378011778797    0.83261598151809
H        -1.03561344740339    5.87140638684567    1.62350915375078
H        -1.09416457307554    5.49724597651159   -0.11659048813361
H         0.44157168703246    5.47395218912685    0.72003184145306
C        -1.84265338454275    0.79564733434974    2.97738464226047
H        -2.17270569810496   -0.05828448046415    2.38319128982001
H        -2.67415946867625    1.18181990065305    3.56123900314568
H        -1.06706429099225    0.45210559463839    3.66154828804924
S         0.22770817514603   -1.39553593983370    1.88437128991555
C         0.13121794624753   -2.89393934901473    1.05036474572418
O        -0.10856046440891   -3.96039078916103    1.55391453567173
N         0.45418696589433   -2.79894507454861   -0.33794687861511
N         0.75216250756376   -1.60790739934274   -0.91238848258046
C         1.31515488808095   -1.85806588294517   -2.08653064606723
C         1.36532629811233   -3.24849872647242   -2.28112648141446
C         0.81623859829054   -3.82604102877941   -1.16029122998667
C         0.61887644014205   -5.25366295209686   -0.83250882075961
H         1.03529619660479   -5.87144139597844   -1.62332578837020
H         1.09391330869971   -5.49712470688660    0.11672835276878
H        -0.44181436999735   -5.47367562910617   -0.71989332428245
H         1.76317529534647   -3.75691821495482   -3.13508593187704
C         1.84280223413223   -0.79573688106318   -2.97754384832928
H         2.17312678734060    0.05810660592312   -2.38335386591193
H         2.67411097526757   -1.18207793879048   -3.56155124053124
H         1.06712999823676   -0.45206288615685   -3.66156007820008

