55
CSD_code = ZIGVAO | q = 1 | S = 0 | Stoichiometry = C19H33ClPRu(1+) | MND = 10
C        11.79536052286761   -0.21380234399552   29.20088866197273
C        10.53984756498801   -0.57232402150384   28.66287362116252
H         9.69791376898363   -0.72594117650872   29.32798137646656
C        10.31070002707189   -0.55152663569075   27.26116586710383
H         9.29892554270540   -0.67400877577564   26.89006144395291
C        11.34029249165373   -0.22409514164777   26.36119149952248
C        12.63220947906956   -0.00720966245404   26.90179437231826
H        13.43736882137880    0.28011876752699   26.23174380984806
C        12.85361871406482    0.01770602052059   28.29255715488324
H        13.82767310974452    0.30349072690950   28.67342890134837
C        12.01661578507468    0.01335404367114   30.67319120693958
H        13.05364819211045   -0.25201977348898   30.90618758591729
C        11.82861063005871    1.51635602264660   30.93155731553392
H        12.02123927879136    1.72914509606248   31.97900805153290
H        10.80880839589576    1.81816169366053   30.70057839486510
H        12.51190112134232    2.10979203630793   30.32805600776891
C        11.10069069891671   -0.80521599382846   31.57984970259814
H        11.16967667897864   -1.86321789300900   31.33695684393427
H        10.06517807088730   -0.48117931678889   31.50482277396342
H        11.41400795686455   -0.67677641709009   32.61204580781485
C        11.07615396612398   -0.02483663171019   24.90071890382660
H        10.89026332183630    1.03446204360068   24.71524457640390
H        10.19940521735068   -0.57867875197804   24.57189438519250
H        11.93221572333883   -0.31861963797035   24.29610168215139
C        13.84929285009534   -2.88741148687407   26.79994114533296
H        14.36052567463991   -3.55404126160325   27.48917726465201
H        14.46540629790909   -2.08521835890148   26.40556264115062
C        12.78272727248539   -3.36318826618796   26.05604229683934
H        12.55406258961192   -2.94035776532192   25.07774169121019
C        12.15607053686420   -4.70969932763260   26.37349119670694
H        12.81687616939317   -5.30583183894895   27.01045553622901
H        11.86736095157125   -5.27986777143157   25.49278955717797
C         9.36151223032792   -3.79245789352192   26.21169684014624
H         9.68326970521740   -2.91984991417648   25.62415321445011
C         8.10348011732060   -3.42689125591282   26.99722305225312
H         7.64339334071229   -4.31850218092535   27.41459153699129
H         7.37260392318546   -2.95447713796540   26.34375943337920
H         8.33484195142267   -2.74398432267792   27.81430528939446
C         9.09173169096372   -4.93593252938276   25.23967398074856
H         8.24301437851014   -4.66387049662127   24.61444122399932
H         8.84299565738570   -5.85748783635272   25.75456004883024
H         9.93685646725119   -5.11860402242704   24.58177861996063
C        10.44856191891597   -5.29003045511879   28.72962970384093
H        11.45743237968126   -5.48152146640167   29.11913843884630
C         9.61366055366534   -4.68919445203274   29.85541769654566
H         9.64597440677943   -5.34603591640343   30.72121363132112
H         8.57413192452292   -4.56255266125182   29.56663604285484
H        10.02474906906206   -3.72373202408517   30.14795660067973
C         9.86354781936316   -6.58686634081667   28.18585189082574
H         8.81857978787138   -6.46720356277356   27.91206493707761
H         9.91445049607100   -7.34832015834495   28.96130446460679
H        10.42486662504989   -6.94484743660247   27.32483897009773
Cl       12.77189117000642   -3.22407172596218   29.56720603821460
P        10.78182299205594   -4.03749461219620   27.39954643859974
Ru       12.00028397198799   -2.04858979861056   27.68911063001572

