71
CSD_code = ZIGWOE | q = 0 | S = 0 | Stoichiometry = C32H30N2O6Ti | MND = 6
Ti        9.69784016217068    3.18322335040906   10.06332079666132
O         8.28631468055338    4.29328842357153    9.82934306456559
O        11.39561157471549    2.54625541340990   10.38956131124946
O        13.59755945929280    2.84112145488818   10.37332935000885
O         9.26833950814363    3.16494671669861   11.82229961032372
O         9.77149357822762    2.76962648676629    8.26947896049663
O         9.57581864816925    1.28589711613029    6.62748145310625
N        10.79566751339703    4.85362074376803    9.60306381631162
N         9.07979342631892    1.22828749679907   10.12667312068100
C         9.08509057226193    5.94907366404203    8.31892934308613
C         8.04977070644592    5.22271186610755    8.95998957622393
C         6.69287289283239    5.54415193550482    8.66078965151366
H         5.92787144550564    4.99017326500625    9.18587760594867
C         6.38072638775812    6.50130386214271    7.75146895193343
H         5.34727432589847    6.73146712150338    7.53371979878395
C         7.04131755483346    8.18819000896753    6.10271753767200
H         5.99369219039400    8.37905606745729    5.91957566700717
C         8.00438371468921    8.87636486500300    5.41551962488625
H         7.73343413529444    9.62192818444239    4.68354424685944
C         9.35113356535425    8.59844030223783    5.66319225769040
H        10.11355613752616    9.12953992696212    5.11258219626670
C         9.71543630115200    7.65712477563444    6.59220599624127
H        10.76672801359761    7.46573049369892    6.73518462424819
C         8.75417775283232    6.93933805245641    7.32977596299496
C         7.38858543230619    7.21539924527352    7.05722585201002
C        10.43228625038904    5.71759790620603    8.72078746745547
H        11.20568685166682    6.35606134766871    8.28358709191977
C        12.18313410540823    4.75029691148249    9.95996982795251
H        12.84485813460620    5.06899003369290    9.13714299348581
C        12.46215883336229    3.24769472728884   10.26521233744523
C        12.48905816798653    5.62829868736313   11.20029071240912
H        12.13706738636763    6.64314448301486   10.96426779689428
C        11.72139985644970    5.12216179523230   12.41924848890701
H        12.05939987125518    4.12140242918415   12.68994787643908
H        10.64910426366955    5.09001669291121   12.20526322151155
H        11.89177494273346    5.78302015581279   13.26754250384594
C        13.99037776170520    5.67398723957222   11.46681358767661
H        14.19232487315401    6.24752072879582   12.36842723350140
H        14.51576679176912    6.14065457824539   10.63661216491899
H        14.37988650963385    4.66761431031264   11.59286754648090
C         9.51610468055395    0.88766629462361   12.46522638080310
C         9.43728942965217    2.27504126844641   12.74699894939795
C         9.51775144586405    2.71031429834196   14.10276676479075
H         9.42792058961234    3.77156320753533   14.28582382086721
C         9.70431901233681    1.82692230092167   15.11531560266532
H         9.76579454883904    2.17290217681982   16.13753952792951
C        10.04840694450119   -0.45713290772166   15.93082256483821
H        10.10480745681967   -0.06050692348672   16.93431555049900
C        10.18798584797195   -1.79975525114281   15.70451709866362
H        10.35286087235735   -2.48312136299564   16.52359449343657
C        10.12436804995852   -2.28243075431399   14.39482195973445
H        10.24829263975828   -3.33953205448474   14.21120440177135
C         9.91182966765176   -1.43024066550550   13.34104680927368
H         9.88821373232384   -1.84805283358979   12.34748500026215
C         9.74851206304565   -0.04499379798788   13.53512247421147
C         9.83377566680584    0.43787043693454   14.86738404204813
C         9.30027831416835    0.44878116313970   11.12701205522324
H         9.27005189489128   -0.63023460492937   10.94889929235878
C         8.82505289316146    0.66019308890305    8.83226882041147
H         9.29654842358728   -0.33020746909079    8.71717513500098
C         9.44647860922576    1.62891537508189    7.78149147845517
C         7.30022159725825    0.50463052440805    8.60083266073183
H         6.90744646507677   -0.06805879409663    9.45363140808385
C         6.61783684355952    1.87037754480160    8.58090070717763
H         6.97376529558121    2.45836356421511    7.73436616739962
H         6.83042668297482    2.41368544134248    9.50625378513337
H         5.54041383063765    1.74711456489891    8.48425601020349
C         7.03027486510752   -0.27192574432215    7.31585301388360
H         5.95994185409540   -0.33017117061220    7.13248944178905
H         7.42334001010331   -1.28363241320959    7.38647902700736
H         7.50751549269310    0.22003263140397    6.47287432833910

