47
CSD_code = ZIGWOB | q = 0 | S = 0 | Stoichiometry = C20H23ClO2Ru | MND = 8
Ru        0.08443693587588    7.71179401745259    1.64878021435416
Cl        1.93517429944998    9.19351563039547    1.58272629046109
O         0.36566336477055    6.99234336327486   -1.24555893545396
O         1.74401118564985    5.39246793655827    2.56406539564514
C         0.29479025213364    7.25176409806571   -0.13314719288881
C         1.13402466533351    6.28068935996485    2.17680935112061
C        -0.77118736352230    8.97423018128391    3.29188598441505
C        -1.25990052857272    7.65762588362873    3.45854039634715
C        -1.99763785522074    7.30009473542248    2.26763652584152
C        -2.03975765235102    8.46569230992504    1.41563367254245
C        -1.24949547323205    9.47434310838165    2.01680080202447
C        -0.10584106140641    9.83358842928763    4.32109426414401
C        -1.22029425392668    6.83533482538387    4.71363242313562
C        -2.90061968334587    6.10973354617520    2.14973149628136
C        -2.92521537341966    8.61799236658291    0.21473702475191
C        -1.12325734435208   10.90537219192764    1.59336485016689
C        -2.44763104999181    7.03599289366763    5.57716040801254
C        -2.60740534763184    6.26111738894376    6.73049550583937
C        -3.73321630177963    6.44706215049866    7.51743594625496
C        -4.71032538552831    7.38088974484310    7.19786415035465
C        -4.53612452138106    8.14551081672960    6.05522533024921
C        -3.41806338869678    7.97364533585722    5.25867623572911
C        -1.58091663469975    5.24220408524802    7.12213186508751
C        -5.90571299556941    7.56013779566023    8.08309895718680
H        -0.80779583286155   10.59327359378979    4.67043752042485
H         0.21955229142712    9.24540023075565    5.17602394537752
H         0.76200478197389   10.33813487221764    3.89660355860354
H        -0.33074254638944    7.08731166039832    5.30012986055381
H        -1.14031962894373    5.77364674055276    4.45910416766458
H        -3.84281025429690    6.31668625343115    2.66211660465550
H        -3.11634476905888    5.88041093887915    1.10871371612002
H        -2.45394424585206    5.23065181409335    2.60918308905108
H        -3.92580534270887    8.90828084954509    0.54259060787869
H        -2.55047539364095    9.38404327668903   -0.46043468275213
H        -3.00770831068718    7.68474183750575   -0.33887533851614
H        -1.73249802776650   11.53549697364542    2.24471773894903
H        -0.08765685001404   11.23526809953639    1.67088657208713
H        -1.45283395354817   11.04541805926988    0.56638146750506
H        -3.85525165920834    5.84666909294714    8.40846726175757
H        -5.27770054872934    8.88246753216373    5.78191858448723
H        -3.30625864491407    8.58611989451327    4.37570232004762
H        -1.86183587930511    4.75316774930614    8.05114044645505
H        -1.47661110851671    4.47926907906987    6.35065712760728
H        -0.60562095923535    5.70852023613397    7.25920421230092
H        -6.67578768674270    8.14318306264711    7.58419603630330
H        -6.32240536478405    6.59560231734091    8.36699927688842
H        -5.61974855480712    8.08139364044546    8.99691494492425

