93
CSD_code = ZIHBOJ | q = 0 | S = 0 | Stoichiometry = C46H44FeP2 | MND = 8
Fe       11.51259797622284    2.36801130856079   -1.61973904932840
P        10.98009539808171    1.64549318324913    0.32096186717762
P        10.88983994188492    0.48996244596534   -2.39070781923711
C        12.07911324641778    3.55114419316185   -3.22095900621565
C        13.17163340145765    2.68274225121320   -2.90405618479596
C        13.55569209484677    2.93724203403520   -1.56498135979505
C        12.73426808309608    4.00436123415675   -1.06687925914878
C        11.85369066398841    4.40516110913603   -2.10127777627778
C        11.39057338890883    3.68994421111694   -4.53845531661553
H        10.34475679603420    3.93996193744523   -4.37702775461676
H        11.42975940598616    2.76038921256217   -5.10144670333511
H        11.84880277497984    4.47948786827276   -5.13650109002552
C        13.89273672657211    1.80851737907102   -3.87790700662004
H        14.16525447117014    0.84988735310985   -3.44123290656876
H        14.80893657854788    2.30590245556644   -4.20329813056917
H        13.27788184480595    1.62640523097858   -4.75515032178797
C        14.76890919374282    2.41261342212372   -0.86232740712348
H        14.52063673524073    2.02632815400731    0.12632860813305
H        15.49758068199172    3.21494155589746   -0.73201020535194
H        15.24051543520091    1.62002217409576   -1.43787769120502
C        12.96452242414460    4.70495014888967    0.23284477361034
H        13.40572059981890    4.02616860320551    0.95857842306679
H        12.03701693742963    5.09503251424249    0.64572102352747
H        13.65213755276137    5.54086773186728    0.08632242379244
C        10.93674801127294    5.58503547262623   -2.10456832286377
H         9.91709593067012    5.27822056739665   -2.33250279915964
H        11.25514030263708    6.29443843220012   -2.86933460176278
H        10.94446451936607    6.09118334702357   -1.14264301834057
C        10.10658430551639   -0.00357860108445    0.17379555200942
H        10.83196094667765   -0.78946395169002    0.40306264747134
H         9.28911431431056   -0.06772176635068    0.89716497082168
C         9.59261714884878   -0.18742946530136   -1.25053564932964
H         8.68311842795355    0.39738791943236   -1.39840836094178
H         9.38661173909493   -1.24014570921370   -1.47049529683552
C        12.20600103427374    1.29703197508401    1.63824594395334
C        13.03125379961312    0.17690642399697    1.58585632465202
H        12.88960373756859   -0.56439472733253    0.81322996274703
C        14.03894485205619   -0.00292953013247    2.51582866685596
H        14.66395160598049   -0.88310682622675    2.46495155360396
C        14.25205254173562    0.94239293621738    3.50521790742886
H        15.04101893614438    0.80283134886332    4.22939198940455
C        13.44936479489635    2.06996776319051    3.55728469752480
H        13.61213090931890    2.81470511573878    4.32316665040665
C        12.44010599230428    2.24892268714423    2.62929661831327
H        11.81551733125871    3.12967801322447    2.67883506503709
C         9.77741190439574    2.59906385164188    1.31669823074472
C         9.21899576155742    2.09104224876779    2.48631104743607
H         9.50897905114093    1.11110575245456    2.84301721010680
C         8.30809238778703    2.84435719176931    3.20344064983451
H         7.87162726026112    2.44408988397604    4.10759953465203
C         7.95456725538086    4.11179140719864    2.76659707843086
H         7.23694331400744    4.69387213949303    3.32655162044870
C         8.52416507207257    4.63007777731874    1.61566830692111
H         8.25256226061784    5.61887621067015    1.27490884687557
C         9.43444051072771    3.87627956199291    0.89599629482681
H         9.87125176123340    4.24743486277064   -0.01709862201941
C        10.16849415163537    0.31854768087894   -4.05029916323111
C         8.86031933448608    0.70930517486663   -4.31890249194080
H         8.22500013870887    1.03823847024043   -3.51226335649775
C         8.38021957564280    0.69704264150822   -5.61616514274143
H         7.36257801759363    1.00284124146218   -5.81306852379069
C         9.19940622725685    0.30213081660080   -6.66094020659091
H         8.82352164957961    0.29637067608527   -7.67370926767943
C        10.50562531399372   -0.08238787132999   -6.40413470084349
H        11.15012095722668   -0.38939693531922   -7.21599857699450
C        10.98863414617020   -0.06826588952484   -5.10898212082269
H        12.00826169267526   -0.37023069732274   -4.90993884576930
C        12.01994251538891   -0.95400886476849   -2.35047306419435
C        11.68527091660804   -2.20142253163448   -2.86746076654921
H        10.74220286857046   -2.33499733654921   -3.38083658532190
C        12.56200661995399   -3.26205530229652   -2.73186388339927
H        12.30174727698531   -4.23036858875943   -3.13500902965061
C        13.77332459660135   -3.08903416525396   -2.07890121973818
H        14.45341613255561   -3.92215777982984   -1.97654887941704
C        14.10915931662834   -1.85070301425508   -1.55803414180367
H        15.05109409033420   -1.71416846491002   -1.04530791382468
C        13.23164142117273   -0.78916754456113   -1.69484082318405
H        13.45889936323826    0.18777047258347   -1.29162341539171
C         9.67139166613789    2.66237867569515   -1.85141290150544
C         8.54445646837210    3.05785205847051   -2.06805402265509
C         7.21957125688435    3.51273961943037   -2.25616659420954
C         6.34049653430045    3.57322167309777   -1.16927681677649
H         6.69089126509288    3.26657776711311   -0.19335683174222
C         5.04700682580616    4.02430672941576   -1.34542050923851
H         4.37508036812941    4.06986961627481   -0.49927792259533
C         4.60281323721767    4.41792243056566   -2.59540699878890
H         3.59150351268591    4.77121987198805   -2.73626268859087
C         5.46947390234171    4.35795485899484   -3.68820984795500
C         6.77367882817361    3.90656730171652   -3.51737144727734
H         7.44499962596092    3.85831881531585   -4.36441194945951
C         5.01900511220837    4.75839358879589   -4.97025862493451
C         4.63656355384650    5.09704532018729   -6.05666566968627
H         4.29737144584506    5.39788946023963   -7.00269788514473

