93
CSD_code = ZIHBID | q = 0 | S = 0 | Stoichiometry = C46H44FeP2 | MND = 8
Fe       16.55675905305455    4.24373167972800   10.64570820083742
P        18.18667407356104    5.54152240389260   10.24180175117213
P        15.27095222861186    5.75097404872438    9.83389983087223
C        15.99490055409636    2.22360752623017   10.93523465864576
C        15.08960396688614    3.07421712401345   11.61350112439746
C        15.82736488857234    3.82289376353583   12.59369934879490
C        17.18379310845902    3.42757182456094   12.51214879877049
C        17.30219741944164    2.48098226721927   11.44603222077501
C        15.66165094160387    1.14939145543066    9.95148144132700
H        16.24101157474262    1.27288419643458    9.03780345531779
H        14.60400724369479    1.16201871527492    9.70131093845808
H        15.90345050603442    0.17413094386634   10.37596782355440
C        13.59865850511931    3.04178653790018   11.51352206891261
H        13.16786259001657    3.95531696171202   11.91561761888929
H        13.20643586436095    2.19836736328161   12.08582057008002
H        13.27326977680127    2.93293711547238   10.48092758485646
C        15.20630385814581    4.64876638349266   13.67624648996786
H        14.53761524985714    5.40504101041542   13.26623451989882
H        15.96929717342726    5.14542878085939   14.27037926701261
H        14.62027880675203    4.01110285756541   14.34097935730899
C        18.25659363496116    3.78579388480778   13.48992560548795
H        18.37205392621706    4.86331239793026   13.59434579507675
H        19.20921851979039    3.36314449009587   13.18305038695940
H        18.00527435360593    3.37770572410831   14.47063464361109
C        18.52582049734195    1.72984570299108   11.03665015726543
H        18.50108730495804    1.55326924437358    9.96396501493750
H        18.57825908722060    0.76617072618985   11.54642936370620
H        19.42744609875500    2.29427157882368   11.26201338640326
C        17.68714252208816    6.67737806931954    8.86367472573929
H        18.40152610857765    7.50048922491388    8.75512833629936
H        17.65975858172168    6.09224063837965    7.94219551267084
C        16.28858061384672    7.18266926326996    9.19502873793550
H        15.81367435191680    7.64113221863942    8.32327962253469
H        16.35229198011658    7.93203693711995    9.98921342277702
C        18.64305699874629    6.83608927383494   11.46173654931147
C        19.77057238092202    7.64225884127673   11.35257633359438
H        20.46822211035191    7.48412108602824   10.54098228718554
C        19.99816574126588    8.63774659936438   12.28547191751007
H        20.87538899138719    9.26321364119722   12.20135101015185
C        19.10519340686837    8.83835330961691   13.32713839738640
H        19.29019306975565    9.61738158084521   14.05233480489940
C        17.97792151514030    8.04113601778332   13.43758969638485
H        17.27975684458697    8.19693526418837   14.24825426217245
C        17.75238392180782    7.04350270680631   12.50600229616534
H        16.88245857648045    6.40224090262741   12.56021612871738
C        19.83518643597105    4.94835441307199    9.76186884837574
C        20.72622397800129    4.62689792762526   10.78371993492923
H        20.44643847599919    4.83234366996819   11.80846383526065
C        21.95709270984365    4.06912409867402   10.49568881330556
H        22.64188940090849    3.82631802040506   11.29597452806106
C        22.30990318927834    3.81702084434465    9.17938535975344
H        23.26919618567978    3.37556586796829    8.95188154777470
C        21.42991232797111    4.13283968540840    8.15793012595335
H        21.70195494688773    3.93707761884612    7.13066925199128
C        20.19740899902028    4.69280172348873    8.44451418402998
H        19.51469793315145    4.92316899626364    7.64223486113315
C        14.28066902138093    5.33206604857585    8.35340650555669
C        14.21353005423892    4.00132314070463    7.96459428599059
H        14.76892209387470    3.27385165503716    8.53516446389168
C        13.47987442911665    3.63312864864336    6.85056399897505
H        13.43947327863026    2.59618294111058    6.54919911938396
C        12.80351920489005    4.59543000611344    6.11978539636136
H        12.23476846172137    4.31304408174056    5.24566084390833
C        12.85234021226536    5.92415860991752    6.51284045354231
H        12.31600214446740    6.67371221028943    5.94834157988541
C        13.58283322579209    6.29311203226499    7.62697496565349
H        13.59799654681644    7.32809260041637    7.94323517781872
C        13.98218976512392    6.63328279129041   10.79261565775469
C        14.31928368623981    7.60210239070865   11.73440078496613
H        15.34799607208921    7.90965333857974   11.85101670188242
C        13.34820259451526    8.18288014374489   12.52983058157947
H        13.62649196900577    8.94056460695512   13.24839124392775
C        12.02484285492179    7.79204464470895   12.41234988657823
H        11.26734442866356    8.24438125092357   13.03518346410312
C        11.68012335102762    6.81363278625391   11.49468271023835
H        10.65093581132187    6.49783244401809   11.40166246951655
C        12.64997749268572    6.23533196932229   10.69662722259902
H        12.37175896146945    5.47394956538212    9.98191207732129
C        17.07959811787863    3.82417619939008    8.88895200495434
C        17.42204844030993    3.32292180250049    7.83676378001473
C        17.77035225070962    2.76505950052429    6.58829488496606
C        18.89698235398792    1.94471093372079    6.46429678226924
H        19.50125308032661    1.74521278146849    7.33917776770800
C        19.23738067036857    1.40527546316071    5.24402570726841
H        20.10926280290178    0.77274436981200    5.14907976106127
C        18.45914975301887    1.67026900940488    4.11466106401909
C        17.33320321128868    2.48861897309748    4.23449294317029
H        16.73207855979467    2.69284343302227    3.35916009937507
C        16.99390456994170    3.02950850516618    5.45428646372090
H        16.12258957933485    3.66328242638357    5.55159468701315
C        18.80849388173402    1.11634258197215    2.86152572074678
C        19.10526455072979    0.64368161764500    1.79799681277102
H        19.36412941303147    0.23276934580033    0.86831517419999

