78
CSD_code = ZIHBEX | q = 1 | S = 0 | Stoichiometry = C34H35NO6PPd(1+) | MND = 4
Pd        5.04839426086665    0.51677788295192    9.98506784038680
P         6.03770864155627   -1.04634858415538   11.22033319155836
C         6.02219251882064   -2.72060213400540   10.53787022219402
C         7.15610605951616   -3.27701338914315    9.95546436648359
C         7.06640631254536   -4.49455692755399    9.30275580926449
C         5.84999193728863   -5.15164025684226    9.21709131726864
C         4.71429836520711   -4.59118387041835    9.78280572903389
C         4.79454203391842   -3.37525418201760   10.43427207281706
C         7.75950540054453   -0.64947041265586   11.64204692268431
C         8.30441259808253    0.53908976946536   11.16173678693994
C         9.60212322821083    0.88576590955535   11.49810609045453
C        10.35085476841246    0.05318486555833   12.31486789064614
C         9.80498882089968   -1.12566367988997   12.80118207681978
C         8.50906916173850   -1.47866869951288   12.47218479035041
C         5.24595452143939   -1.12009374366087   12.86508761180785
C         5.00034129588959   -2.34538492679248   13.47735278939196
C         4.38221117109944   -2.40800104898908   14.71346462471775
C         3.99532841377381   -1.24144085915540   15.34808774902451
C         4.25110071627155   -0.01673278164217   14.75425448518349
C         4.88284166147328    0.06528936016305   13.52115097342472
C         5.20778993436839    1.43011726309861   12.96031712865091
O         4.47817832246800    1.68480265860119   11.76267928420297
C         4.70242475961531    2.99262846335702   11.24721220506715
C         3.97939746753179    3.13288055521638    9.92793282542048
C         3.21786414893103    4.25223128680125    9.62428916300649
C         2.60345177272215    4.32890336582333    8.38375076984165
C         2.76388369503427    3.27960704278451    7.49307689163081
C         3.53428390242855    2.19234216089230    7.87362195451317
N         4.13042126573136    2.12816101263366    9.05837778344432
C         9.93969984797994   -0.48813491430772    7.71014708727318
C         8.88267346803907   -0.09062705788442    6.69006794955846
O         7.59417335863539   -0.57965813682443    7.08272011976706
C         6.85688158690037    0.19057848303430    7.85977014124730
O         7.17550257967136    1.30678796853820    8.24347806895125
C         5.57974193665360   -0.38179492410042    8.31367577153389
C         4.78726022050308   -1.20447459645013    7.60769687472769
O         5.06900157896036   -1.60830703543066    6.32696455770914
C         5.46598790773915   -2.96115058973142    6.18145197291776
C         3.47741650428910   -1.58601499384499    8.21283786176464
O         3.04564477560592   -1.06902849946567    9.23289787877779
O         2.82215997519729   -2.51584402859215    7.54329979415850
C         1.53740997309277   -2.90044607944410    8.04896490121126
C         0.99706690481226   -4.01526000119853    7.17520794059703
H         8.10260837431636   -2.75814021774063   10.01585498222073
H         7.94751027453898   -4.93086200607074    8.85705649353241
H         5.78540606172923   -6.09946667239224    8.70512264711684
H         3.76752718712208   -5.10573817355024    9.71226689370530
H         3.91438943978966   -2.91614541790609   10.86645276615514
H         7.71031512814088    1.17630068071616   10.50551026515803
H        10.03005054308816    1.80276374638952   11.12173167510925
H        11.36282835808946    0.32321313986420   12.57439767687407
H        10.39153588132426   -1.76874866577967   13.43920968373761
H         8.07429687447841   -2.39350534177931   12.85025136910405
H         5.29861500008428   -3.25769275858936   12.98129627947143
H         4.20199765889807   -3.36592691020091   15.17624805994268
H         3.50131084092445   -1.28056382634336   16.30616423124206
H         3.95998923370087    0.89028320292003   15.26335932969829
H         6.29275118539592    1.50436779183267   12.76353702770662
H         4.93784831577619    2.19557315256621   13.70227246941046
H         5.78554162013258    3.15523904122670   11.08046039585942
H         4.34052188206121    3.74073849508072   11.96745145399825
H         3.11037087527942    5.04837311328910   10.34384707541135
H         2.00900417331049    5.19023528643471    8.12198631036302
H         2.30216970284294    3.29967660443313    6.51948661632128
H         3.69075790605604    1.35365888604153    7.20609131147318
H         9.96662453830452   -1.56929512647314    7.82267592554169
H        10.91387304143203   -0.14446536254316    7.37591371930877
H         9.71896569350647   -0.03813205516302    8.67581511981760
H         9.07881128699019   -0.54881959658884    5.71934673717440
H         8.83449525279696    0.99751671090818    6.58961066851332
H         4.69524989113933   -3.64672297712775    6.54094280327093
H         5.61911165753971   -3.10514180411115    5.11432107790527
H         6.40173617465278   -3.14423478042874    6.71856063443237
H         0.87992067351370   -2.02486467895082    8.03369234894010
H         1.65277308237636   -3.22031449734805    9.09014818634282
H         1.65758146017839   -4.87750689077637    7.20757684007151
H         0.01323598018381   -4.30970819395680    7.52772492042967
H         0.91778697583564   -3.67849559264359    6.14549373821023

