85
CSD_code = ZIHCUQ | q = 1 | S = 0 | Stoichiometry = C39H42ClIrOP(1+) | MND = 8
Ir        3.75347659624040   10.42233123939656    1.46456031122361
Cl        3.19840675348433   11.11483380724038    3.66986022001940
O         5.77079737289193    8.52242984910951    1.41633282818893
C         2.87378793251582    8.69434910462769    0.26901154644143
C         3.26783257467951    9.74706546513487   -0.61049871670826
C         2.40973964350897   10.89170373439838   -0.34984966511599
C         1.58909487028606   10.57566290133630    0.74251892281848
C         1.90303657776303    9.22467369460530    1.16627011678641
C         3.29606851380413    7.26669680402363    0.16177362131043
H         2.54688615893016    6.71690287086019   -0.41023218123479
H         3.38674051408106    6.79728022572932    1.13844680216682
H         4.24828457222572    7.17820694693851   -0.35308288811017
C         4.12039327202884    9.56285647810906   -1.82258870555035
H         5.03845268956421    9.03064881116345   -1.58139786876844
H         4.37743108971312   10.51512994806300   -2.27763250582250
H         3.57648987638906    8.97330704748349   -2.56224936891626
C         2.28672539454859   12.08546616421545   -1.23785272383139
H         1.64654998851807   11.83369687294866   -2.08520520968571
H         3.25049381688111   12.40270230506894   -1.63119676145271
H         1.84118017577786   12.92775930095301   -0.71449145502941
C         0.46420147374061   11.37506167228326    1.30759244570384
H         0.47353124456198   12.39536689419992    0.93358688143196
H         0.51831739164359   11.40060215704172    2.39512394244707
H        -0.48540476029500   10.91433596069641    1.03181054980335
C         1.08883774881629    8.46426998203428    2.15829122243399
H         1.50745898826261    7.47897852015783    2.34368241705403
H         0.07467547253793    8.34112494662336    1.77526012598334
H         1.02165179249083    9.00294975229751    3.10262839119503
C         5.82470707913726    9.63991570466305    3.54637046223325
H         5.92471973772942   10.68198875622814    3.82471783789058
C         5.29314335347405    9.42546657647181    2.23599257906214
C         6.91653820260142    7.72569704334102    1.70734043568463
H         7.59307193492701    8.24385360090662    2.38878447049715
H         7.40615648623783    7.53649256592884    0.75260719327205
H         6.61113118780276    6.77763478569745    2.15299731673309
C         6.05479245347020    8.71470328453679    4.52240535564919
C         5.58704107894846    7.33219354561779    4.40156590521128
C         4.32337753935104    7.06808970023206    3.87214952074401
H         3.69714192063566    7.89931683074667    3.58032268679510
C         3.86361871777188    5.76734498548351    3.78212052684892
H         2.87451290739562    5.56679212930528    3.39710395628450
C         4.65950280212277    4.71490649829289    4.20580280461876
H         4.29725673542302    3.70115953295182    4.13489975106310
C         5.91522098019234    4.96831874004628    4.73617216746816
H         6.53355601930259    4.15080762241554    5.07315445772926
C         6.37406205028909    6.26690545553281    4.84645706081290
H         7.35184408636181    6.46590366189263    5.25952548236722
C         6.66641790020780    9.11471030316885    5.78729660239632
C         6.28749235834515    8.50376002092361    6.98508368123640
H         5.51859837096565    7.74591585404908    6.97816052756331
C         6.86570862981228    8.88710148117383    8.17980015889429
H         6.55759552705934    8.41378529924064    9.09935749129866
C         7.83553912352655    9.87646616947763    8.19976091267401
H         8.28794113678482   10.17223880973787    9.13362117201780
C         8.22232902009083   10.48657662179813    7.01606560686945
H         8.98192637577201   11.25331533130492    7.02674837318497
C         7.64117460288984   10.11508905612221    5.82067027621940
H         7.95747722811736   10.58422338702058    4.90070160118123
P         5.09783511946650   12.31794556744512    1.21535926735241
C         6.21511458738804   12.21464907147973   -0.23296801301454
H         6.95337275251178   13.01445915324920   -0.21373335832061
H         5.62509126391417   12.28562042629926   -1.14352057418433
H         6.72207514486139   11.25151893676307   -0.22711169653391
C         4.12746073812188   13.83255196909840    0.95023996685280
C         2.95586348637614   14.00288270370689    1.68475478649648
H         2.64438302747477   13.23335834755236    2.37653765352661
C         2.19701068569566   15.14856929502586    1.52868016735109
H         1.29215492420680   15.27524318843622    2.10383940782152
C         2.59641181881750   16.12931124768002    0.63510201477984
H         2.00289363512567   17.02160784316055    0.50898708501958
C         3.76063791015815   15.96313569304007   -0.09682043573663
H         4.07519107521910   16.72695519843452   -0.79163852572191
C         4.52807976336758   14.82185889900970    0.05765954359343
H         5.43461339589297   14.71440910747329   -0.51753170048589
C         6.21939734971141   12.81335940767021    2.56295142283275
C         7.57143446797889   12.47764221713631    2.53702964730944
H         7.97766994257138   11.90545221551366    1.71617077744352
C         8.40383253056032   12.87501414011949    3.56844604802909
H         9.45405982222445   12.62510088170393    3.53476005701661
C         7.89404786524867   13.59182158940308    4.63945744060432
H         8.54683890784470   13.90266913863601    5.44027435903360
C         6.54554016705625   13.90586360662228    4.68098088432853
H         6.14366616796295   14.45558527436330    5.51769914373876
C         5.70923123971485   13.52061806256437    3.64900420934017
H         4.65855892815219   13.76303000694405    3.68436175226241

