69
CSD_code = ZIHDEB | q = 0 | S = 0 | Stoichiometry = C31H33IrNO2P | MND = 4
Ir        6.86354609864762    5.12883763362470    5.75444187582231
P         8.07988239562397    3.14049699216450    5.94973015699245
C         5.89520018935622    6.69537908591619    5.39328497972543
O         5.27848129829446    7.63819195445743    5.17351643755814
C         8.31271473213015    3.40728500474454    1.97588125474624
H         7.49471656599650    3.56995596012544    1.27439147378162
H         9.15808689554658    4.01783298186170    1.64503189224636
C         6.62559672463630    5.23777452656797    7.59970418950101
N         7.23972887529517    4.84117925020860    3.78485328252541
O         6.53195541012741    5.22155762129407    8.74872533072402
C         9.60565192263899    3.09293155418947    6.94052233135189
C        10.80957374691156    3.48690588228975    6.36767738748441
H        10.82808586860684    3.77591190426392    5.32543009723257
C         8.50772621626991    2.86666193491479    4.25805278913989
C         7.95597295119477    3.77617851124789    3.39402163343620
C         6.69487601138605    5.67776158842725    2.77974233156700
C         9.56330010158837    2.74991309634251    8.28871819030043
H         8.62095878430030    2.46471106292592    8.73748649537957
C         7.31483185834604    6.89571040896151    2.47427999358891
C         5.83440655047813    1.60395705622315    6.44008075019770
H         5.30462064524732    2.52941646926330    6.24365381603905
C         9.20678727109838    1.74443393203715    3.53926039735165
H         8.94769284353572    0.76042717217223    3.93823151444985
H        10.29661410754714    1.84642292083873    3.59584519143954
C        10.72105088856454    2.77042925505210    9.04317112303137
H        10.68768069093724    2.49741268299613   10.08782736698823
C         7.22588497939336    1.61215417851130    6.44786366596038
C         4.97139152106789    6.13838200344189    1.17479225542051
H         4.05535114055495    5.86892317876566    0.67269036145363
C        11.92300206331230    3.14455758949644    8.46256910123038
H        12.82624811043675    3.15826347469456    9.05453920385300
C         8.57696148521560    7.32165016137123    3.18986731770889
H         8.72429089347068    6.65619544858578    4.05122055235744
C         3.85205282505715    4.26219650880327    3.66161254122854
H         4.39599394506210    4.61570342213543    4.54337191747525
H         3.32131576901519    3.34951470758120    3.92557998808954
H         3.12643740012709    5.02187045812476    3.37886778635226
C         6.75115189440812    7.70572404104109    1.49923406211124
H         7.22381340573064    8.64128630498227    1.24129787191412
C         4.10423654125370    3.32759963286160    1.34209473870994
H         3.20813981670213    3.87721979566490    1.06469466114764
H         3.80349431553674    2.32030495307371    1.62409921689483
H         4.75428623058623    3.26072258461662    0.47180072865982
C         8.71134026249710    1.92820849656956    2.09314850354165
H         9.46295269455761    1.64272667897594    1.35780366717127
H         7.82781808132689    1.30693967395784    1.93378284937519
C         5.58908500930481    7.33309472949486    0.85343600312964
H         5.15813285032257    7.97706759369107    0.10076459927968
C         5.51464286735264    5.29008040456846    2.12644116015981
C        11.96549349606201    3.50715116574331    7.12627782865455
H        12.90113677571164    3.80719329218950    6.67688929092651
C         7.92122975907801    0.43139443035605    6.68960334483246
H         9.00294002320339    0.43561035997204    6.69024159589967
C         5.84092961867100   -0.73895383516880    6.94357863352569
H         5.30352063081588   -1.65446319283593    7.14236182288252
C         4.82775660105253    3.99620468906822    2.51075790573227
H         5.58441891652350    3.29439219387095    2.87530587611466
C         7.22679297284088   -0.73782773198326    6.94077464783651
H         7.76780765587802   -1.65314681843526    7.13321603749883
C         8.47728778993501    8.75187901082844    3.72247042984878
H         8.46764742767501    9.47500347787029    2.91075090001785
H         9.33238257989750    8.97045661941054    4.35889222249648
H         7.57092908257849    8.87980707930183    4.30878213227178
C         5.14482034562035    0.43263202675173    6.69098863965341
H         4.06456780258601    0.43089985840788    6.69244223612886
C         9.78704215339151    7.18365865167337    2.26316912568995
H         9.89623812338596    6.15593659588844    1.92422571422035
H        10.69738523367162    7.47377398149270    2.78410445977956
H         9.67130926481680    7.81983568148145    1.38803212016198

