103
CSD_code = ZIHGEE | q = 0 | S = 0 | Stoichiometry = C54H34Cl2F8O2P2Pd | MND = 4
Pd        2.05411549536073    0.00054073836183   11.13401259559092
Cl        0.33442254632742    1.39577383748199   10.51076712123435
P         2.84360210562218    0.40870216158935    9.06567237090329
C         4.46842067626408   -0.38104044163815    8.74970586341969
C         4.68470318765810   -1.47506377739227    7.92577427187573
C         5.94693131121116   -2.04687472690811    7.79386803026499
C         7.01871887249673   -1.51528217296116    8.50072041917667
C         6.81287669177054   -0.41644054790859    9.32644425797775
F         3.68279943432689   -2.00000666744701    7.20875991557566
F         6.13182168405500   -3.09082342522800    6.98005964100996
F         8.23706130206615   -2.04888753332723    8.37470400928430
F         7.85996471664796    0.07822451894229   10.00274871995321
C         5.55118810345823    0.15301615318703    9.47337634886306
C         5.31987241232245    1.27098477591195   10.37470572763641
H         4.40610845121186    1.21877803095702   10.98085066674640
C         6.11464541901833    2.32875489338635   10.55088783667735
H         7.03073434313350    2.46496392800420    9.99784010063642
C         5.69890771303251    3.39371297915092   11.48694031062427
O         4.53562466758463    3.51837793060140   11.82359031764539
C         6.75696921988184    4.30459452429402   11.97815368386457
C         8.09383450916888    3.91635738708279   12.05247919912649
H         8.38923950885256    2.92177276931534   11.75389971649289
C         9.04010638941116    4.79406576733068   12.54796309438768
H        10.07365142750792    4.48787990627022   12.61165543265498
C         8.66778217635594    6.06320068531936   12.96281317990159
H         9.41365326766966    6.74690725717582   13.34024216463673
C         7.33884294475431    6.45230869027136   12.90095998667823
H         7.04739722821460    7.43797544046359   13.23186204396679
C         6.38698996296550    5.57464065975770   12.42072496995318
H         5.34504528093358    5.85459227617725   12.37171704523982
C         3.22823345248927    2.08367704236996    8.48111600775942
C         3.91048599732813    2.26048654002146    7.27906543445014
H         4.19372945216391    1.39983219650524    6.68664203810442
C         4.23532564741497    3.53528781803639    6.85579686169425
H         4.76224623083338    3.67375126898555    5.92300835964419
C         3.89068846658115    4.63338970887077    7.62940127096780
H         4.15081234488367    5.62692567839487    7.29528418501253
C         3.22052725358035    4.45751342827693    8.82816933361805
H         2.96024851598084    5.31094073584194    9.43526790933308
C         2.88914347088321    3.18502781202021    9.25789425034915
H         2.37493575124958    3.04287144121339   10.19996098623411
C         1.64321878079933   -0.32652827254820    7.92812522012658
C         1.29631929007339    0.20693004753795    6.69392121920149
H         1.77567213273631    1.10569816530070    6.33360241555275
C         0.31777458699958   -0.41270095750325    5.93598492713134
H         0.04459167353518    0.00082121427408    4.97624473998115
C        -0.31217981831805   -1.55331944925866    6.40460350576722
H        -1.07432647898167   -2.03078626266326    5.80663144087414
C         0.02399824825219   -2.07830581760759    7.64283119184871
H        -0.46850709121515   -2.96335442791982    8.01476079288450
C         0.99154049221986   -1.46208313903996    8.41153018311828
H         1.25551984210899   -1.87513966225053    9.39225769343820
Cl        3.77844852856822   -1.39068640738704   11.75238406373562
P         1.26738943611007   -0.40916778202754   13.20112883215298
C        -0.35738407024663    0.38082472633709   13.51693575204267
C        -0.57367011540586    1.47489628951668   14.34081542136075
C        -1.83589615641579    2.04674510241292   14.47268459449732
C        -2.90765997911066    1.51523200373034   13.76574551817290
C        -2.70180610303519    0.41641134457294   12.93999323248596
F         0.42821904933639    1.99983106922263   15.05786737658441
F        -2.02079382315367    3.09069905387424   15.28649852358713
F        -4.12598286620276    2.04891892687543   13.89167271857032
F        -3.74887714889036   -0.07815900535792   12.26358857056233
C        -1.44014126044879   -0.15314386151577   12.79318161662978
C        -1.20878127935713   -1.27117684885526   11.89195139219040
H        -0.29490923822872   -1.21912327723763   11.28600756561823
C        -2.00365633341850   -2.32882301620465   11.71560976753100
H        -2.91987233198741   -2.46492731163531   12.26848144459558
C        -1.58795671316402   -3.39363525580858   10.77938581897359
O        -0.42465501875762   -3.51841621710308   10.44284862191013
C        -2.64600701357153   -4.30462446449998   10.28835327141690
C        -3.98283644926148   -3.91632431934754   10.21382132973415
H        -4.27821157185446   -2.92167545059446   10.51221800195957
C        -4.92909229792426   -4.79404253195550    9.71833249319724
H        -5.96261268399234   -4.48780981479548    9.65449049484462
C        -4.55679210971573   -6.06325832224067    9.30371171940467
H        -5.30266362872662   -6.74698658939477    8.92632211873731
C        -3.22788388404472   -6.45243622687685    9.36578385260984
H        -2.93645892302121   -7.43817631166797    9.03507934097059
C        -2.27604486754992   -5.57476060305660    9.84603371144632
H        -1.23411721505425   -5.85475325367310    9.89517312063354
C         0.88266803019474   -2.08406824030974   13.78554503294213
C         0.20052570368276   -2.26070072132065   14.98763880361914
H        -0.08264308383398   -1.39996631492175   15.57999893519033
C        -0.12431213595214   -3.53545250737302   15.41098717720032
H        -0.65114801453798   -3.67382488222283   16.34382632775808
C         0.22025192997876   -4.63360447667530   14.63741275526103
H        -0.03987349340307   -5.62710888159591   14.97158236035537
C         0.89020703974143   -4.45782963682498   13.43852854432750
H         1.15046626789434   -5.31125919273035   12.83143420577342
C         1.22142695622740   -3.18540835691900   13.00865383805047
H         1.73533659292258   -3.04336195651726   12.06644989387534
C         2.46785358793212    0.32640290949652   14.33835010628374
C         2.81481179292727   -0.20695655832832   15.57254940620670
H         2.33552022670505   -1.10573845159372   15.93290232919483
C         3.79337232286380    0.41273715729382   16.33039724747162
H         4.06662866617283   -0.00076305811619   17.29012355814024
C         4.42325284318474    1.55337121929970   15.86171636182847
H         5.18541591820972    2.03088151736228   16.45963445987063
C         4.08698759151761    2.07830392777408   14.62349214422276
H         4.57943518222406    2.96337117609094   14.25152275390903
C         3.11944195252262    1.46197989912549   13.85486056361055
H         2.85545090043480    1.87490265664142   12.87409389965311

