45
CSD_code = ZIHHED | q = 0 | S = 0 | Stoichiometry = C20H20ClN3Pd | MND = 4
Pd        2.03018580855843    5.74468109255898   -0.00978670963971
Cl        3.22243748162813    4.96712327604221   -1.74363342598948
N         2.53831374486699    7.87968249849719   -0.23281174503737
N         0.77708431413464    6.70790263159915    1.44081279215614
N         2.28411715118997    2.96213817065000    0.74256138325867
C         3.57664925600388    8.33488950561173   -0.92008766123950
C         4.10175014184271    9.60142552284764   -0.72030855408947
C         3.52767444202392   10.41203260097252    0.24960252562585
C         2.45070130474723    9.93419395383286    0.97406003960670
C         1.96661177794193    8.65427310309642    0.70194389187581
C        -0.19645635386554    6.11987052864277    2.13114479425994
C        -1.17382803001071    6.82332727173277    2.81037929187431
C        -1.14921086026700    8.21160600536549    2.76301363696632
C        -0.13013798272599    8.83032794762252    2.06481472665498
C         0.83604773563561    8.05406585100665    1.42412816306775
C         1.54240850137035    3.84762068228945    0.28009836178627
C         0.15136136867440    3.50852820611582   -0.18371011277104
C         3.63526197937255    2.97814285243538    1.04840394012707
C         4.20681908545287    3.81289466336280    2.01631795659959
C         5.55427752472217    3.66758255553855    2.31437892427920
C         6.33365037107420    2.73077369275801    1.66297573177962
C         5.76764608293551    1.92497537946117    0.69018616785541
C         4.42472522743017    2.03115992867090    0.37677741405028
C         3.80127715184540    1.20081412095316   -0.70068891296707
C         3.39466506365321    4.87155463798989    2.70878593586775
H         3.98793251317112    7.65446498422968   -1.65854728616395
H         4.94020453331843    9.94209761235708   -1.30607441473737
H         3.91776113284069   11.40018835595442    0.44301109660544
H         2.00786979611982   10.53488995495360    1.75273743141965
H        -0.18225256335213    5.03744548478282    2.15116950734533
H        -1.93785403896052    6.29792670972712    3.36032857965625
H        -1.90627892889961    8.79605845849389    3.26304169662722
H        -0.09015749410196    9.90589576882826    1.99945437417267
H         0.24087608414742    3.13465652927171   -1.20632368022353
H        -0.50569622748913    4.38413360571555   -0.20052806336421
H        -0.28483441644006    2.72086979366486    0.43139839086718
H         5.99819897427307    4.30914497901440    3.06330288108444
H         7.38142537617896    2.63429711951016    1.90689216424546
H         6.37728215917114    1.20256181231131    0.16672972390665
H         3.55233040390853    1.84171029744583   -1.54666124583768
H         2.87630592599511    0.75078526725217   -0.34356971287358
H         4.48053866393160    0.42173231947431   -1.03670162011552
H         3.30430658900750    5.75382481450310    2.04477510058682
H         3.88345932725150    5.19080329369457    3.62732473377439
H         2.39504990169202    4.50332615916925    2.94878178706746

