99
CSD_code = ZIHJIL | q = 0 | S = 0 | Stoichiometry = C38H54Cl2N4Ti | MND = 6
Ti        2.94476057521857    1.44199263095534    8.63149314461904
Cl        2.62934749774160   -0.53176492708751    7.65247754566611
Cl        1.23702903901685    2.42163539634573    7.59362126554210
N         4.81218374443058    0.92705139483350    9.18132040911628
N         4.35170616765876    2.03321909283665    7.34709890634510
N         3.01400390654450    2.90789712419592   10.01129965192925
N         1.91207960845984    1.03468149331893   10.28907159360845
C         5.58282085954235    0.10203868479818   10.07987744217048
H         6.66069842404650    0.28956929715302    9.93262437853988
C         5.29415571564939   -1.38366233282140    9.82222803321335
H         5.61063649264209   -1.64222323458285    8.80937188607508
H         4.21300036268217   -1.53586303064235    9.88420061052820
C         6.01192592426500   -2.26636132905272   10.83729861286822
H         5.77577912932968   -3.31410148986381   10.64264097494716
H         7.09234936988742   -2.14045327030181   10.72776845764725
C         5.60097694195551   -1.89466083412841   12.25805996960621
H         6.13066406063767   -2.52330045222456   12.97699485021322
H         4.53039258745835   -2.07119293582066   12.38156845138814
C         5.90800517111628   -0.42505921153575   12.52743419112661
H         6.98644933298823   -0.26238751699021   12.45511115694401
H         5.59796455325696   -0.15738588761513   13.54003265090775
C         5.19310214706934    0.46528955431223   11.51617902318745
H         4.10833448542654    0.34685346148764   11.60480231737328
H         5.43193992941179    1.51688957852728   11.69746738588828
C         5.24578023837994    1.30548820160319    7.99564574697836
C         6.58553573701785    0.94950827141201    7.45224035088604
C         6.73859284919625   -0.19050836300554    6.67001104033742
H         5.87501768265140   -0.80430343236709    6.45358456960582
C         7.98580174149749   -0.52750199496817    6.17452226385542
H         8.09959469367154   -1.41270490146835    5.56659280517335
C         9.08439615093203    0.26768429210734    6.45611311864796
H        10.05691536979264    0.00294778685585    6.06847590426693
C         8.93529142746835    1.40378453772350    7.23389815822340
H         9.79058693724498    2.02592259918420    7.45319752081825
C         7.69036956588116    1.74658365086706    7.73216572633286
H         7.56611243546573    2.63320496512291    8.33817883396544
C         4.53569414476149    2.43743907630888    5.96928875580535
H         5.60494594508682    2.37234596386446    5.70137796395712
C         3.72875524502150    1.50844621975556    5.04945826609625
H         2.67826296609727    1.54242014706019    5.36094204830895
H         4.08330358502440    0.48041843185626    5.16782456695755
C         3.85122195403317    1.94632546288554    3.59425794026641
H         4.89591603948948    1.87417858217140    3.27849637431907
H         3.26284462518210    1.27956637876079    2.96135409877254
C         3.36761878179931    3.38350644698979    3.43101180453888
H         2.31301615438562    3.44073580785859    3.70696848906197
H         3.46412826171839    3.69542096851938    2.38883928045526
C         4.17328210544610    4.31479532194372    4.33078167643596
H         5.22404741253121    4.29394232521640    4.02839375024282
H         3.81453493023500    5.34059874784553    4.22371819537342
C         4.05465155728498    3.88074141306997    5.78816687127518
H         4.64678333340517    4.54293671293797    6.42599757803563
H         3.00932149545353    3.93197034271102    6.10616861619908
C         3.37242013158928    4.28697079536378   10.23781668730483
H         3.20590194918510    4.55048411395843   11.29685377962507
C         4.85597095063235    4.45894425814766    9.89656398985824
H         5.00126805233644    4.11440278720036    8.86753199937245
H         5.45160155731382    3.81803988980261   10.55247840140843
C         5.29178798161037    5.91407457284260   10.03502342946875
H         5.18051498189465    6.22825429486104   11.07601905220379
H         6.34670307391517    6.01119181066380    9.76876846348554
C         4.44270942796994    6.81451430642481    9.14347250599210
H         4.59330540308685    6.53741253995277    8.09794511946194
H         4.75179250647136    7.85503538808015    9.26344323644898
C         2.96672971562116    6.66439770607412    9.49665048457439
H         2.36109369807929    7.29713579037127    8.84522684039609
H         2.80531951782533    6.99266981661271   10.52693168517462
C         2.52480639161366    5.21219536848140    9.35325992180249
H         1.47284230665591    5.11065028049994    9.62881100202400
H         2.63230808881473    4.88325332584126    8.31589107804437
C         2.07680244236335    2.28264176162015   10.69521044811811
C         1.29377268783740    2.91292727445515   11.79376833983213
C         0.08090830993100    3.53443284989252   11.51509732490480
H        -0.28829893383993    3.54377782622936   10.49880429781088
C        -0.64195640309941    4.12936944496287   12.53395549238280
H        -1.58363863351394    4.60957250835614   12.31329532547707
C        -0.16045051908655    4.10853175236771   13.83252472469774
H        -0.72609574654635    4.57347135641054   14.62623574781124
C         1.04620674426830    3.48964988067794   14.11350632085697
H         1.42226931625570    3.47085142321047   15.12607466343304
C         1.77379332540832    2.89233457508442   13.09896901825994
H         2.71544980659986    2.40531093205582   13.31130582551067
C         0.84059228771252    0.19531871489646   10.78203150603735
H         0.45565461033105    0.60218151775209   11.73361570204713
C         1.36592727713081   -1.22519097732312   11.01368962321812
H         2.15863504341909   -1.20002227843828   11.76665765376677
H         1.78930084982282   -1.58737854905729   10.07238949913761
C         0.24390846334382   -2.15371085190923   11.46669568521488
H         0.63897374256835   -3.16106489009329   11.61362039618769
H        -0.15272648995797   -1.80623640163182   12.42471875727660
C        -0.87639666843639   -2.17789972541226   10.43227386745197
H        -0.48653606310617   -2.56579092875643    9.48933853398002
H        -1.67902480763715   -2.83884999731839   10.76635874419306
C        -1.41674317762420   -0.76917989056340   10.20967241056587
H        -1.84672981953055   -0.39114669131298   11.14161087056872
H        -2.20795056793445   -0.78645975124723    9.45798238521573
C        -0.29850925938614    0.16043321101903    9.75179271725861
H         0.11034772274335   -0.19209987770499    8.79775617714713
H        -0.68419066720596    1.17290351769622    9.60084504035593

