57
CSD_code = ZIHJOR | q = 0 | S = 0 | Stoichiometry = C16H34Cl2N4Zr | MND = 6
Zr        6.62237193154903   22.34379197472688    5.04277654283529
Cl        8.75492988011204   23.26700725678565    5.45761610505953
Cl        6.35109647943690   21.67584553505774    7.29042602556050
N         5.60506240192268   24.23076821709843    5.20235925473909
N         6.40334601456890   23.52840066816868    3.28290672617487
N         7.29348234383902   20.40931953603986    4.38736837481190
N         5.16190382652668   20.92919493383320    4.39968250274096
C         5.33696519875456   25.17665086084633    6.27011349737112
H         5.02914669670693   26.15591443815357    5.86910902958185
C         6.60667762597484   25.35099901551958    7.11576614614876
H         6.42945409460104   26.05004091035241    7.93027715826167
H         7.42962980173426   25.72320240407880    6.50531506896329
H         6.89728762097021   24.38383959346969    7.53599410429886
C         4.20530828139227   24.61286369882390    7.13442024013249
H         3.29476525507252   24.50314278472383    6.54730987585575
H         4.00335518404260   25.27700161803201    7.97127215224599
H         4.50269624226859   23.63711961173524    7.52130229820915
C         6.05019115915857   24.58305485101833    4.00053518529604
C         6.10903928944228   26.01433629604105    3.52036461057780
H         5.16092571466360   26.51282159946147    3.71575615747679
H         6.31477504574128   26.05908387963364    2.45532602271339
H         6.89610526516528   26.54838072200795    4.05107601862529
C         6.99154309831726   23.55615605239833    1.96367227888605
H         6.48051584583199   24.28417500215581    1.30983980189978
C         6.80974267246099   22.15238800968477    1.37913104804440
H         5.75037379910842   21.92800447203068    1.26723687782638
H         7.24604609003424   21.42838691683247    2.07276283685923
H         7.29407573197650   22.07172046852247    0.40851026880951
C         8.48342035876074   23.90253688609361    2.05098537341926
H         8.62477472198212   24.90399212983785    2.45185900370637
H         8.94768392370231   23.84904021051943    1.06877661536394
H         8.97450029469590   23.19621471943461    2.72191570100922
C         8.46839263301259   19.58827008875916    4.61518808099565
H         8.28870009486114   18.54161766039525    4.32072985999432
C         9.61612380604069   20.15403322491376    3.77371250103753
H         9.37234162130069   20.10502585261378    2.71349012242489
H        10.52749138630485   19.58758650884581    3.94907521248218
H         9.78675615742946   21.19422642790368    4.05508642486904
C         8.83423417785361   19.64018288844645    6.10558162889756
H         8.01212403541255   19.26966819230060    6.71818651133158
H         9.04003837479972   20.67558495906917    6.39188542150504
H         9.71841559525942   19.03782735967048    6.30269215377460
C         6.04857065545206   19.94740323085210    4.44391931891130
C         5.70743284419514   18.47754769438744    4.51903006977937
H         6.26902166948807   17.92476510998900    3.76768027144168
H         4.64695692013335   18.31532498607951    4.35279813345186
H         5.97046749545200   18.08892298669083    5.50198456018914
C         3.72845195657873   20.78562671044245    4.50846560514061
H         3.36136960314263   19.93839423887546    3.90345755352736
C         3.12127831925709   22.08229483739711    3.96505333834863
H         3.36665889395699   22.19709233422685    2.91066811606414
H         3.55144715999277   22.92400751596743    4.51471266130717
H         2.03958524967368   22.08083525245672    4.07964784240002
C         3.32139248683652   20.58538473863499    5.97380842766542
H         3.73366914786568   19.65816034783661    6.36607631567710
H         2.23837250268859   20.55630032076459    6.07061646605029
H         3.71551532249773   21.41042125936003    6.56899049922838

