95
CSD_code = ZIHKIM | q = 0 | S = 0 | Stoichiometry = C24H56B10N4Zr | MND = 6
Zr        5.95158115918171    6.87018117217382   12.42583730645590
N         5.87951112558721    8.18129706897260   14.14568376892208
N         3.94321418159736    7.53970408137762   13.28657794698025
C         6.72189724183353    4.85297061301545   12.72411231777850
C         6.81421559692950    8.78245546410010   15.06928223845224
H         6.32660820960159    9.39189260038083   15.84491344963417
C         7.56946920057721    7.63016052314383   15.75165953301740
H         6.90762421620336    7.11220130297803   16.44454295398151
H         8.43257842423638    7.99612153064578   16.30324412937779
H         7.89143086356651    6.91433109623314   14.98771982555106
C         7.76646955708541    9.68667772685451   14.27500624973880
H         7.23298037937000   10.56267412668335   13.90704202983569
H         8.14827800860827    9.13045527403425   13.41745789373277
H         8.59394787923726   10.02198219127044   14.89683832358353
C         4.55756405326975    8.24997990510389   14.22094826209052
C         3.83703507879508    9.12335168886636   15.23292479384504
H         4.35418011709940    9.09033614436735   16.19404409893674
H         2.82572009140274    8.76071341787964   15.39548059271923
C         3.78323406681566   10.56848165367433   14.72139172985973
H         4.79961560145758   10.90986954695392   14.51182506901355
H         3.22869262994422   10.59372221273445   13.77969565198531
C         3.13257983232745   11.52947516657002   15.71737062699383
H         3.64535317480838   11.45599654233958   16.67934428022595
H         3.26557713607990   12.55022124372590   15.35043278665867
C         1.64390209969378   11.26913580793716   15.91587416215116
H         1.21329007122298   12.02780696037357   16.56496107268930
H         1.47145382937131   10.29844368165640   16.37341084459412
H         1.12181355602780   11.29914952695101   14.96179156857337
C         2.50115473810474    7.33662869989253   13.30756673012206
H         1.96900795928698    8.28876417317217   13.48038618577007
C         2.10291752253225    6.33482296595031   14.40449701812118
H         2.48915271941827    6.63109723659362   15.37680356663372
H         2.51148330624802    5.35672956358119   14.16583530990239
H         1.01934882979741    6.26193973516624   14.46860133162820
C         2.05806838914513    6.77853250313524   11.95214425948610
H         2.12212843142462    7.53692655044926   11.17589140392551
H         1.02648898236510    6.43932602903013   12.01212427528593
H         2.69451751475650    5.93066112096398   11.68952050869489
B         6.97750666386391    3.51403174836589   13.76174561516352
H         7.72141400161223    3.65072861296922   14.67224846876873
B         5.44247925705030    4.36556925584943   13.76523451463697
H         5.13621560178922    5.14515967616137   14.62452112294349
B         4.30236997759236    3.50883055892394   12.73908537950070
H         3.13799261985622    3.61303971093738   12.91612997693251
B         5.43614074060524    2.60550273867601   13.78342805503168
H         5.07429602619730    1.99740378770520   14.72763955031528
B         6.78381676642448    2.06553779792647   12.74408865944802
H         7.37723003715681    1.07057314362494   12.96853083440323
C         5.18126464303272    4.85296959518790   12.12756772964224
B         4.92565627106516    3.51402845924250   11.08993695073710
H         4.18174874845187    3.65072283090025   10.17943385116965
B         6.46068302174401    4.36556703257701   11.08644639712901
H         6.76694599209236    5.14515588342885   10.22715815671841
B         7.60079289139621    3.50883107303772   12.11259711519804
H         8.76517010156935    3.61304088790557   11.93555203146344
B         6.46702271358766    2.60550047565800   11.06825629472933
H         6.82886783199373    1.99739991628602   10.12404599751125
B         5.11934711102220    2.06553656730122   12.10759681177406
H         4.52593467046384    1.07057097378165   11.88315658130577
N         6.02365285011759    8.18128883746041   10.70598536901344
N         7.95994954241991    7.53970314427281   11.56509784578198
C         5.08894811575275    8.78245277792158    9.78239064153584
H         5.57655559355866    9.39189197565812    9.00676122574370
C         4.33368968628114    7.63016285473324    9.10000958914847
H         4.99552775325443    7.11221246911220    8.40711287668042
H         3.47057294014318    7.99612761716206    8.54843885966822
H         4.01173858620876    6.91432491910184    9.86394601624900
C         4.13669738392296    9.68667418413481   10.57667171153132
H         4.67018894683364   10.56266778241310   10.94463933355742
H         3.75488857022067    9.13044858406782   11.43421788709900
H         3.30921927107129   10.02198334583414    9.95484190363485
C         7.34559988162309    8.24997880580268   10.63072720866099
C         8.06612906572796    9.12335518287739    9.61875468199384
H         7.54898735546941    9.09033924162222    8.65763356067949
H         9.07744580870134    8.76072051340565    9.45620129524782
C         8.11992272112937   10.56848432168338   10.13029089822385
H         7.10353924829169   10.90986733711302   10.33985614981589
H         8.67446237828208   10.59372548346567   11.07198806759668
C         8.77057476293080   11.52948284507517    9.13431545126988
H         8.25780809697749   11.45599921162187    8.17233866831564
H         8.63756717947231   12.55022813947534    9.50125213183045
C        10.25925570187203   11.26915509702685    8.93582099782635
H        10.68986575635322   12.02783011278587    8.28673736095596
H        10.43171459891342   10.29846471861035    8.47828457063311
H        10.78133800405746   11.29917209897434    9.88990688388772
C         9.40200906016930    7.33662920446601   11.54411003160456
H         9.93415496844937    8.28876526253308   11.37129159704589
C         9.80024777650922    6.33482455071069   10.44717907018511
H         9.41401264935356    6.63109916586556    9.47487248291562
H         9.39168288098616    5.35673060523566   10.68584016459343
H        10.88381656305543    6.26194237006829   10.38307536391866
C         9.84509579504746    6.77853330214550   12.89953241754846
H         9.78102950919364    7.53692539003188   13.67578678551913
H        10.87667753431663    6.43933381214632   12.83955351306169
H         9.20865199976752    5.93065715999909   13.16215319553426

