95
CSD_code = ZIHKOS | q = 0 | S = 0 | Stoichiometry = C24H56B10N4Ti | MND = 6
Ti        6.21808786991642    4.93937042795133   12.19337864690831
C         6.95059556846434    6.81823494898133   12.47086056924920
C         9.66508241725339    4.51046106266424   11.40733488713047
H        10.14949040304959    3.52621580456492   11.27762041735988
C        10.16346821030585    5.10058415193338   12.72756830331015
H        10.06058548264181    4.38815970988869   13.54115739068230
H         9.60108520720874    6.00114374933787   12.96287027578332
H        11.21593639028530    5.35930151896279   12.63431247459500
C        10.10700897938769    5.43285921909994   10.25796987710356
H        11.19175615796456    5.42894874676961   10.17336413189967
H         9.77090214244720    6.44617132390769   10.45500467649643
H         9.68231608464569    5.12029083539836    9.30692228137353
C         7.60238547219648    3.62433519375301   10.52537356172808
C         8.30475219674790    2.69726224657926    9.54625123017218
H         7.82462710653401    2.75100640597128    8.56663974274128
H         9.33992489236222    2.99922585847269    9.41335473990226
C         8.26411693429920    1.25579835065013   10.06913106116823
H         7.23015660568513    0.98325520326972   10.29327040243004
H         8.82724781065383    1.20040007870369   11.00432345406525
C         8.83768192635123    0.24611965655550    9.07381156362067
H         8.65496617321122   -0.75993948831853    9.45922643684145
H         8.30834770275434    0.33501819117553    8.12199180145048
C        10.33405081916037    0.41848414947032    8.83916542581649
H        10.70775766661434   -0.37534703282074    8.19659456418844
H        10.87438430490535    0.37724766564117    9.78266721389882
H        10.54987349617838    1.36918092571405    8.35855870562133
C         5.36428785789451    3.13225147253188    9.64796112894740
H         5.88760170759442    2.52277650740500    8.89634327941866
C         4.37672236667266    2.21660514479725   10.37990991065580
H         4.90172308327134    1.36065558701061   10.80371542400603
H         3.61363846430327    1.85069836650263    9.69588571921088
H         3.90806067394521    2.76812844181165   11.19121155296128
C         4.64635521577347    4.27664699352689    8.91744647698092
H         5.35126230606920    4.80484164628759    8.27593029924927
H         4.25632793787584    4.98425257157001    9.65052565551231
H         3.83249532709410    3.89774452764278    8.30303587929598
B         5.70874682251041    7.31045930219921   13.55855781685595
H         5.40379689604425    6.53921209334587   14.41561620094190
B         7.25090800845134    8.13422867900529   13.52349298525523
H         8.00848798494123    7.99655796960191   14.42026106330601
B         7.86216966385862    8.14341720518974   11.86818622764361
H         9.02531983422175    8.04815690626757   11.69554614355550
B         5.71256790154972    9.06098301908015   13.55506055158084
H         5.35763951809838    9.67254490467877   14.49841005583767
B         7.05446207902842    9.58632542049319   12.50773992753095
H         7.65350846777700   10.57751635461819   12.72849836866324
N         8.21734930766286    4.36246863992226   11.42360930966146
N         6.28058654609895    3.72430278812729   10.59623918184835
C         5.48558023636823    6.81823559889812   11.91590017072635
B         6.72742908944666    7.31046215435708   10.82820398773640
H         7.03237889696420    6.53921668635908    9.97114399122638
B         5.18526811478409    8.13423180863749   10.86327056431947
H         4.42768810691807    7.99656323500975    9.96650218721792
B         4.57400639960203    8.14341675996741   12.51857733393823
H         3.41085621549775    8.04815621715480   12.69121720580594
B         6.72360836202079    9.06098588130196   10.83170504569785
H         7.07853689522615    9.67254973366781    9.88835686908021
B         5.38171430258456    9.58632626844719   11.87902684824571
H         4.78266815685043   10.57751782017784   11.65827053081375
C         2.77109389693865    4.51045853591819   12.97942099992056
H         2.28668598698158    3.52621293799660   13.10913331050433
C         2.27270844957577    5.10058425306618   11.65918865260304
H         2.37559125657336    4.38816147058811   10.84559811865923
H         2.83509163425628    6.00114427481871   11.42388868405403
H         1.22024027057373    5.35930151353122   11.75244479650799
C         2.32916692536113    5.43285426786229   14.12878781256058
H         1.24441971168798    5.42894377523872   14.21339294360352
H         2.66527409614508    6.44616675121449   13.93175544790456
H         2.75385924204182    5.12028360014832   15.07983491141628
C         4.83379088569204    3.62433124633318   13.86138100241437
C         4.13142457497285    2.69725558893909   14.84050107529312
H         4.61154983306000    2.75099767727911   15.82011263979989
H         3.09625174848359    2.99921850364160   14.97339818096316
C         4.17206014549033    1.25579277392056   14.31761830455195
H         5.20602047748961    0.98325092237054   14.09347751735815
H         3.60892852709527    1.20039595705664   13.38242627052963
C         3.59849698848090    0.24611137258716   15.31293612575596
H         3.78121326406966   -0.75994686240220   14.92751904413158
H         4.12783199344608    0.33500846838080   16.26475558182355
C         2.10212820279895    0.41847442681508   15.54758414381743
H         1.72842255658987   -0.37535893330508   16.19015299601682
H         1.56179388084912    0.37724019779853   14.60408274299895
H         1.88630515304129    1.36916963896321   16.02819384228917
C         7.07188824771259    3.13224668871717   14.73879312790459
H         6.54857423625173    2.52277079613167   15.49041034686224
C         8.05945416800417    2.21660236152658   14.00684223432925
H         7.53445338224391    1.36065285558171   13.58303687870126
H         8.82253904434398    1.85069527885674   14.69086516608747
H         8.52811469349515    2.76812635283144   13.19554026555810
C         7.78982221801600    4.27664107119868   15.46930830383486
H         7.08491546129725    4.80483451960345   16.11082571554366
H         8.17984905501987    4.98424803657331   14.73623013361037
H         8.60368239017149    3.89773773061546   16.08371798730591
N         4.21882697079412    4.36246647364267   12.96314672322998
N         6.15558966271515    3.72429986608940   13.79051624230069

