136
CSD_code = ZIHLEJ | q = 0 | S = 0 | Stoichiometry = C46H74B10N4OZr | MND = 6
Zr        6.67348333296255    5.34715512970605   11.68315009632967
O         5.70894177462243    6.45625087652464   12.88555103975963
C         3.66056819141582    5.66393807698936   11.85859777523247
C         4.67877684143885    4.87114779894136   10.87654644814466
C         4.34979308214423    6.23357264482201   13.13644214124996
C         4.24445076144541    5.24959413336356   14.33084414595738
H         3.20162048969647    4.97716814966144   14.50620400622625
H         4.82451229220733    4.35840716105641   14.06825870697422
C         4.85326094831782    5.84550628370147   15.59962457913189
H         4.76165272024688    5.12811226049866   16.42015806986362
H         5.91502358016254    6.02540889453705   15.41145711631301
C         4.18555293097272    7.16267065688914   15.97313698681554
H         3.12551333620543    6.99461631413358   16.17994624567068
H         4.64447852671667    7.57342048045461   16.87544546151525
C         4.33360306274568    8.13822301758948   14.81311780932887
H         5.39462576186010    8.30195142089754   14.61166739145935
H         3.87591860299960    9.09871754935498   15.06100620543930
C         3.68267322508214    7.56753930357578   13.55699236710150
H         3.79005824152681    8.28498941356024   12.74188400541714
H         2.61979086394985    7.39876349568271   13.73876455009396
C         9.40649642036014    5.65416315933443   13.78434627446768
H        10.06662594575029    4.96022655449090   14.33269310630388
C        10.24350562913411    6.44038103081590   12.76850348207558
H         9.54988957621050    7.02211401374568   12.15181421154451
H        10.76357557913701    5.72837133239013   12.12045574664647
C        11.24996168547135    7.36200629152002   13.44966098660017
H        11.96653292786657    6.76238412852960   14.01737593303654
H        11.80853666689049    7.92231394618119   12.69607454383495
C        10.53992187268697    8.32513287739387   14.39511219997186
H         9.85736541740989    8.95911841449614   13.82527561085507
H        11.27015371659664    8.97374212378723   14.88402556014355
C         9.75618198847362    7.54393017332121   15.44442503948077
H         9.23869807850798    8.23382184826932   16.11462233088683
H        10.45302153097546    6.95454951171356   16.04665454134099
C         8.74415991995777    6.60754785556002   14.79132285368067
H         8.24951993383873    6.01143209984464   15.56334195190066
H         7.97342075073033    7.17431357299034   14.25365263535234
C         7.94498669324540    3.75365724106187   13.38952214539913
C         8.62476346976616    3.00963889318776   14.49343173828270
C         8.11077330114743    3.06590528212827   15.78522856998540
H         7.19319689322326    3.60774714301659   15.96684370022259
C         8.76565981257614    2.43156758180022   16.82665777654364
H         8.35510827044800    2.47631330262120   17.82476757669663
C         9.94439666993997    1.74374469689682   16.59190067038703
H        10.45341112937172    1.24768589688543   17.40486024724675
C        10.47326253667052    1.70093321802865   15.31265695215693
H        11.39801884522464    1.17440548212138   15.12660390054842
C         9.82243901979905    2.33621642736907   14.26961948391560
H        10.24185125360120    2.31301072189625   13.27322128627148
C         6.41163744385375    1.94591081828818   12.74867919991844
H         5.63105504123271    1.90432551916258   11.97398344408768
C         7.46681238231128    0.89022102928014   12.38471960387229
H         8.19991486335183    0.80132134026560   13.18793747031386
H         7.99003975615780    1.19739827303846   11.47815841541744
C         6.79202196860034   -0.46215580890120   12.17478757331520
H         7.53884978196209   -1.21037428627573   11.89856781790306
H         6.07216930868538   -0.38770430070504   11.35664394075476
C         6.07225412728507   -0.89520620641928   13.44881556515039
H         5.56127646370914   -1.84589699061558   13.28402507135676
H         6.80702371283941   -1.04345555573639   14.24432818589670
C         5.06690627546925    0.16731467964176   13.88399285840302
H         4.59063691047685   -0.13610137070647   14.81883593002775
H         4.28689695157656    0.26449351048123   13.12566058108070
C         5.75805195901480    1.51587071873164   14.07316271805316
H         5.02858468045429    2.26122043708755   14.39458284808442
H         6.51623363183992    1.42521512091301   14.85243295161657
C         7.77826840825925    8.45477085908264   10.42215953277534
H         8.85322044203690    8.67555319204961   10.28166193187896
C         7.31119589836065    9.07658572822768   11.74313183526493
H         7.87523262404168    8.63009987063513   12.56627574128325
H         6.25904802638462    8.81767163227648   11.89028853793159
C         7.48996308838771   10.59138699913647   11.74285144679312
H         7.13354762830781   11.00651219823862   12.68817870478224
H         8.55249432458922   10.83382705932904   11.65065438173235
C         6.73060901636684   11.21813433677971   10.57798932806330
H         5.66237641840880   11.02592926316136   10.69644688457199
H         6.88013560351261   12.30000775652349   10.57249158863272
C         7.20757478726048   10.61838738593879    9.25928484498928
H         8.26645198712806   10.85012135205268    9.11665551054980
H         6.65513775892926   11.05893099688355    8.42688639745947
C         7.01557825431439    9.10453061251647    9.25489177838124
H         5.95441452872600    8.86612398649421    9.34542341221839
H         7.37212969131870    8.69210566346040    8.30979606123498
C         8.11848822943867    6.17756962814146    9.65952211901469
C         9.03703486677090    6.63057630187954    8.57224615200440
C        10.35889632431498    6.96395205552724    8.84427509226444
H        10.73263198617935    6.88738178620401    9.85550617958097
C        11.19581265818530    7.38883470293017    7.82643426466323
H        12.22085078160035    7.64845506957433    8.04836680073197
C        10.72323417824130    7.48017952692877    6.52874791538065
H        11.37765977979830    7.81177385297795    5.73628071465875
C         9.40925912325882    7.14219350952788    6.24884888483251
H         9.03743301257232    7.20778849051194    5.23691077653900
C         8.56916749212359    6.71990414378536    7.26344116699847
H         7.54305690438345    6.45414881596249    7.05034090339807
C         8.44971152055982    3.87697578615622    9.04402768521124
H         8.78774182990803    4.27098509578128    8.07110316050315
C         7.46115905817690    2.73612676117271    8.79265482500064
H         6.60723570067009    3.12021109815958    8.23139150362270
H         7.09253349528308    2.38247961413735    9.75999451251148
C         8.12548046393078    1.60067615804002    8.01824113470028
H         7.41154214746064    0.78812707913573    7.87066865550765
H         8.42387817660885    1.96563605454921    7.03215102171497
C         9.35876368038176    1.07914343303155    8.75047756720594
H         9.05669467427915    0.62646043188594    9.69687644270214
H         9.84353690857904    0.30319636710756    8.15371484349594
C        10.34473280850112    2.21254389971664    9.01870475212296
H        10.71173921013907    2.60336486934452    8.06605601255071
H        11.20514790835049    1.83346056615943    9.57573108276226
C         9.68027780955017    3.34539040409526    9.79522711514968
H         9.35753131018703    3.00185038055039   10.78345396870660
H        10.39131037351132    4.16368302106052    9.93994611998181
N         8.37470514786307    4.95651314091544   13.04640699677707
N         6.90074004726298    3.32233257484947   12.69343346263682
N         7.55668611350058    7.02096263447002   10.51133662220450
N         7.79745713446846    4.90480195005692    9.83041440039356
B         3.47362618598343    3.96242349847678   11.68299652486053
H         3.78447980342903    3.24483270177624   12.55798584097714
B         2.07480287855638    5.02407759864936   11.78131003322497
H         1.41206804463839    5.02877343064248   12.75568946376881
B         2.43614437364986    6.52998381439810   10.96026014091432
H         2.00585571518096    7.54129968848266   11.37558309255216
B         4.09598588720204    6.43999955356074   10.40575830504124
H         4.85452414393076    7.34076757575150   10.48288530267884
B         3.84236060136673    3.63910724556223   10.00876972954915
H         4.43580087352291    2.65402120996977    9.73970078634928
B         2.14514766066416    3.70937581811532   10.56384200172572
H         1.46911842625253    2.74806922379454   10.64202435345840
B         1.50403572035540    5.29786942101502   10.10776945832070
H         0.36271661526349    5.45821378939866    9.86569501092885
B         2.78869055839242    6.19552076909965    9.25167124563579
H         2.56769795493701    6.98928457329898    8.40968961296263
B         4.23559319170997    5.15725708067988    9.22926072518585
H         5.10986175688750    5.21175995517130    8.43164045713941
B         2.61840100819369    4.44244077225596    9.00503066335505
H         2.26697989698649    3.99003937194608    7.97585609821284

