83
CSD_code = ZIHMUY | q = 0 | S = 0 | Stoichiometry = C26H46N2O5P2SiW | MND = 6
W         1.62705003509398    6.57146422367901    2.07719666436633
P         3.85913868619621    4.64831678788743   -1.07860891000563
P         3.00203380335449    4.69932119024665    0.92902687816956
Si        3.13193454695772    1.62143836547403   -2.34337251193981
O        -0.77746861408655    4.86482605859897    3.14450030459868
O         3.84458386686650    8.63518916957003    1.24704829883860
O        -0.48039204726952    7.46664227549513   -0.05466752487897
O         3.29418968189632    6.02150591668180    4.68236206579926
O         0.22443480557917    8.87078766948766    3.65139927584437
C         0.14433253462951    5.39979361178000    2.72626196801696
C         3.04960714971192    7.85063513847994    1.50322989148413
C         0.36767683573272    7.07896431341562    0.61323449257042
C         2.72787710406790    6.16962734903786    3.70034502042341
C         0.74538481027772    8.02475494860096    3.07938266868967
C         3.09072605319735    2.98785857485344   -1.04286822275648
C         3.80369084629744    2.28843249592789   -4.01214051401411
C         4.26685753878567    0.16486143688174   -1.82389616108606
C         1.38551580972131    0.98595071957493   -2.81110093486579
C         2.53070146450303    3.11175061655457    0.20926558388973
C         1.71914556131455    2.13458067574419    1.01649359768170
C         2.12949233786671    0.67967261442849    0.78580026145574
C         1.90413191832886    2.42696547076437    2.50978042641024
N         3.32322117068639    5.56408757238370   -2.38779201851095
N         5.52373335486672    4.78133351242951   -1.14781552597854
C         0.81085404732007    5.39084287529634   -2.18952178257201
C         2.07249135760626    5.11390427433608   -3.00631277053318
C         3.74043165564986    6.97165474642852   -2.33990061321388
C         6.20643286950514    4.59346444510999   -2.42741264774003
C         0.24844009939272    2.34235064094321    0.63183691036453
C         6.36259940113554    4.69396155937420    0.05295650872429
C         1.90814413238383    5.60448285658253   -4.44106022674112
C         2.67286297703609    7.94896151846311   -1.86114460437155
C         6.16076472550060    3.40108219535423    0.83878269562304
C         4.33625418137742    7.45851510488875   -3.66492467466538
C         6.17825731495237    5.92447238543742    0.93611992036488
C         6.83301348826563    3.20653432736540   -2.56371857093555
C         7.25110680634871    5.68402419948287   -2.67903819828861
H         3.01244123960578    2.33979887080469   -4.75440393200411
H         4.57599133053787    1.63964727933409   -4.41373764857126
H         4.22752655926263    3.28147396323559   -3.92607001212501
H         3.68929452950912   -0.69038179290216   -1.48953479989824
H         4.93726214091894    0.43719922987685   -1.01391192222802
H         4.87874622296890   -0.16839784593422   -2.65716252328950
H         0.70023054356504    1.80789604492602   -3.00037960668568
H         0.93272709958975    0.35313442818336   -2.05587198939682
H         1.44689492525399    0.39824607566123   -3.72284270968224
H         1.89803640411729    0.35588533397757   -0.21977535448170
H         1.59480613951541    0.03727872369464    1.48270380056600
H         3.19601327453043    0.55818952953201    0.95526552336175
H         2.94431564334688    2.28089730373311    2.79739898522804
H         1.28504677003522    1.75756238614840    3.10398114090641
H         1.62042475679417    3.45150800981055    2.75082008413583
H         0.99769054532686    5.17838708342654   -1.13663879600868
H         0.01079361918625    4.73778936338341   -2.53157090105967
H         0.47216754509301    6.41683986267480   -2.28879860264260
H         2.17899291135097    4.02600225455880   -3.04565044516521
H         4.54373650362924    6.97973034178715   -1.58917906869116
H         5.42458430608657    4.69483929104319   -3.18550025795113
H         0.09664780482683    2.11854537376327   -0.42089387386739
H        -0.04302484492046    3.37660710274195    0.81013150849981
H        -0.39214103910348    1.69497344608618    1.22655340053029
H         7.39586606006027    4.70435945913176   -0.30589843647500
H         2.81255905617668    5.43119037235736   -5.01712204101550
H         1.65541341727545    6.65987462400767   -4.47792441023159
H         1.09508840721072    5.05098016447501   -4.90538132235910
H         2.21902657837127    7.59291657151890   -0.93785861163707
H         1.89856044898753    8.09619177642578   -2.60893237289141
H         3.13738660508759    8.91274216559064   -1.66347500891491
H         6.25345752939057    2.53834395902540    0.18423132113392
H         5.17472394813193    3.38897606384794    1.29712780215941
H         6.91030195387770    3.32729809098896    1.62322960650527
H         4.94380493742918    6.68913498600548   -4.13086894371326
H         4.96543396219870    8.32507161713273   -3.47445800618721
H         3.56169207738530    7.75905131944613   -4.36308286629160
H         6.36481016530673    6.83221449870008    0.36654084639378
H         6.87537393094572    5.88880185992646    1.76955649592333
H         5.16757560376587    5.96748384406984    1.33934388595985
H         6.09424470236716    2.43900899297059   -2.35066770806099
H         7.67356196730267    3.08621648025110   -1.88452110530069
H         7.19499580528748    3.06888410074579   -3.57970838782188
H         6.84953828264329    6.66347678077561   -2.43709067582114
H         7.53730729954308    5.67529304968879   -3.72790108897178
H         8.14972001910276    5.52392572634275   -2.08849799205566

