52
CSD_code = ZIHMIO | q = 0 | S = 0 | Stoichiometry = C23H23BrClIrN2O | MND = 8
Ir        8.98607692038812    1.19799660663529    9.44578119221132
Br        8.69124811984117    4.46214989428429    8.02846931607302
Cl        8.36417079119900    2.48205797751130   11.32448789248144
N        10.44601064099808    2.72521121936554    9.27799187253108
N        11.69797610697020    1.14349003763191   10.40450705569734
O        11.09375370211970   -1.82761557265764    9.84780404524748
C        10.30564444869681    3.98564708732350    8.87491393147364
C        11.26364665200817    4.96569072912140    9.03902458483871
H        11.07905579408910    5.96261400230429    8.67340886157783
C        12.44839736440619    4.63270530689337    9.68655711941441
H        13.21335905318933    5.37937027412138    9.83051107587519
C        12.61450269087120    3.34660892512866   10.14942081616729
H        13.49533946671919    3.03025576135847   10.68127909051870
C        11.59868936509946    2.41261287587972    9.94507423320834
C        10.63670466360561    0.42487472477979   10.29414192713282
C        10.69666815526399   -1.00967682801590   10.66152110481016
C        10.21717453454806   -1.38723278725765   12.00505148249658
C         9.71173085718460   -0.44322940754929   12.89733994474850
H         9.65632885834295    0.59490845426399   12.60917098103511
C         9.26708040804130   -0.84423490712992   14.14313495110598
H         8.86898634308534   -0.11226131373407   14.82972178949113
C         9.32970277634203   -2.17947279938682   14.51160119207728
H         8.98133355220672   -2.48664240633336   15.48702944205353
C         9.83973590281823   -3.12210785148440   13.63126586670113
H         9.89020049903161   -4.16152028188849   13.92085924084519
C        10.28130735861464   -2.72929561307179   12.38387389013090
H        10.68088691381967   -3.44514129022957   11.68079097015158
C         6.98975843870763    0.25247489076575    9.32133023720076
C         5.99434648756512    0.09475706822069   10.42350230545249
H         5.06287994505620   -0.30682260379085   10.01985181531387
H         5.77888694915674    1.05416803438084   10.88897532939093
H         6.36260457296129   -0.58403794058283   11.18929770140366
C         6.90443342984286    1.26882647361813    8.29421643678852
C         5.84596311733329    2.32146749377088    8.26413345015763
H         5.99314687795984    3.00981325210174    7.43653034369032
H         5.84904430393021    2.89631661921530    9.18915984776344
H         4.86458011307743    1.85539976866573    8.16284278092088
C         7.88300268661076    0.98691969539778    7.33485659989718
C         8.10677655593352    1.65928389230856    6.02155648774471
H         7.81482851753064    0.98091259832828    5.21808692812412
H         9.15694050941840    1.90926608075549    5.87692883309090
H         7.52243936155743    2.57093770356891    5.93619247199631
C         8.60147149634564   -0.20537263163298    7.75128327671200
C         9.57788003398464   -0.95948452228668    6.90708392706450
H        10.27529526291456   -1.51229323843023    7.53367256311582
H        10.14375864353451   -0.28805537849000    6.26560534998973
H         9.04690856459580   -1.67242078502337    6.27323296992727
C         7.95497462223411   -0.72321004776577    8.91714554066909
C         8.04746668819874   -2.12328969807642    9.43182563066627
H         7.86450449538078   -2.17048672199095   10.50341750161005
H         9.02053931004473   -2.55974600406331    9.22515594435895
H         7.29035707662712   -2.72938681682209    8.92978185685736

