135
CSD_code = ZIHMEK | q = 0 | S = 0 | Stoichiometry = C45H73B10N5SZr | MND = 6
Zr        9.92539045899210   14.24506110686154   18.07124669728783
S         9.25811648753571   18.77025658316866   18.04947475040382
N         9.58650631029326   16.20083990511194   18.71152282841415
N        11.55818690662647   13.52843652411951   19.37099194983563
N         9.44170620323516   13.09233991965502   19.92128798279985
N         9.63092815682440   12.50633765767403   16.80560314046922
N         7.93708857032476   13.94942011013565   17.06443150051295
C        10.78489639667323   16.90097760111670   16.76499039338431
C        11.21300382312826   15.33212077109704   16.63021145881899
C         9.85162394641027   17.21797610371409   17.88607070641851
C         8.85444594713884   16.47775208996924   19.93367838987950
H         8.04047656866082   15.74713641739825   20.04431567113336
H         8.42896147266954   17.49282467868172   19.88834985779729
C         9.79890311266817   16.37412745839602   21.13734770663627
H        10.60710833401762   17.09965265090607   21.00442746096222
H        10.23481772483677   15.36709060558169   21.14819787921630
C         9.08641614922071   16.65337682737542   22.45837836940337
H         8.63002976352991   17.64446859429923   22.41619707071754
H         8.28415979081152   15.92470942577835   22.60182605783522
C        10.04488523135523   16.59099350311643   23.64178111420919
H         9.52037248588189   16.79849789863050   24.57157786549515
H        10.84046338451615   17.32326380461421   23.52584363848687
H        10.49905578370081   15.60508209205746   23.71859076159357
C        12.99238717702644   13.66682804829858   19.61177861885595
H        13.37555828551547   14.16287902183698   18.70978252203385
C        13.28399885950470   14.59490618241224   20.80211160485206
H        13.00182832991391   14.09720583223480   21.73237310641355
H        12.68616260870298   15.50409914784305   20.70347241776259
C        14.76872883858990   14.94511501513225   20.83850731819842
H        15.03163998947957   15.48695146568627   19.92756234338031
H        14.97363151086385   15.59809740977371   21.68933898047889
C        15.61555172510925   13.67975198754354   20.94040197538578
H        16.67544378986653   13.94013726526352   20.92625134016501
H        15.40634517031636   13.17909617853443   21.88909551542709
C        15.29753419856516   12.72910448751981   19.79009501003259
H        15.88930422556251   11.81657904967138   19.88957973625520
H        15.56380689103823   13.20200693511423   18.84256141337287
C        13.81090091092496   12.37854703813011   19.78627341153973
H        13.59624039507881   11.68548956590040   18.97156168668135
H        13.56461771512794   11.89069921428692   20.72959302337489
C        10.72413632421595   12.87011692094792   20.16871999608743
C        11.12925153477022   11.94231786437103   21.26748571333576
C        11.40137211437052   10.60450371011126   20.99538296724964
H        11.37360174967128   10.25317740504140   19.97346079579747
C        11.72436203552418    9.73323056764007   22.01990402089154
H        11.93857666775872    8.69836415840948   21.79699088543945
C        11.77348952352042   10.18537334300131   23.32828082425519
H        12.02861225698552    9.50516685748397   24.12692726450705
C        11.48866610145736   11.51071426849923   23.60945398339041
H        11.51763541975247   11.86646619313225   24.62887209260289
C        11.15958621129872   12.38314976759684   22.58660498002558
H        10.91843707136763   13.41326303032430   22.80837757420078
C         8.39880381674806   12.30691654769912   20.55466256346386
H         8.70752879206978   11.94939557967405   21.55178064047131
C         8.06539334377547   11.09298776221953   19.67399886023883
H         8.93900141640086   10.43850887315053   19.62851311036140
H         7.85676689035854   11.45942621276527   18.66273190344937
C         6.86959433559565   10.31480719514269   20.21253840994274
H         6.65526522339335    9.46814372584192   19.55629499555563
H         7.11283993761680    9.91651871031167   21.20107527537322
C         5.64690076976048   11.21908673970289   20.31827003562750
H         4.79918018905044   10.65801802435366   20.71699451028589
H         5.37439812748669   11.57834637072719   19.32367665301315
C         5.95655168538334   12.40663589916429   21.22321557633125
H         6.17314191534720   12.04323785520036   22.23115940218412
H         5.08717976821381   13.06487034899458   21.28758455152194
C         7.15702937498607   13.19119583242421   20.70160553205030
H         6.93921598431584   13.61114295696200   19.71219023969083
H         7.38171473309593   14.01153064498553   21.38807883451631
C        10.35482580786866   11.44016537190699   16.13421462963611
H        10.30944089954924   11.56326779080939   15.03793632814569
C        11.81129733839648   11.53030426432526   16.60151954230735
H        12.20916223791818   12.51763156943625   16.35373346646513
H        11.81099405245155   11.42530832447926   17.69186684262072
C        12.67266715766898   10.44086406763738   15.96912981542268
H        13.70019942919064   10.52677644799897   16.32826524999431
H        12.68647968802101   10.57581987264698   14.88559680391836
C        12.11674415421261    9.05905971847465   16.29912341717279
H        12.71744404209342    8.28705897187864   15.81446117542901
H        12.16852346613886    8.89302250029702   17.37804206038899
C        10.66626975663787    8.95533588231580   15.83912037027930
H        10.26151150085100    7.97395658046634   16.09630212949653
H        10.62248752360601    9.05994082674635   14.75266781015125
C         9.81275155813982   10.04456180903153   16.48268042763166
H         8.78228745863635    9.94927421758719   16.13982446397160
H         9.82161703240216    9.92818889786478   17.56865528246211
C         8.46204802282639   12.95179830390232   16.36270644538738
C         7.81707992905474   12.39169470912692   15.13768259823020
C         6.91844227604357   11.33216727893726   15.21019041576266
H         6.67116032845578   10.89969515374623   16.17053932729384
C         6.34002953837903   10.82553298205392   14.05924117527896
H         5.64283392279057   10.00333675530074   14.12784020642320
C         6.65375751510359   11.36985918736924   12.82576238156197
H         6.20080946851043   10.97388269677757   11.92924578822094
C         7.55036047638985   12.42210633429265   12.74607870637143
H         7.80030855175684   12.84987948076409   11.78687798022943
C         8.13164888715091   12.93227972282771   13.89393978587436
H         8.83185881314446   13.75305214573045   13.83111389677926
C         6.69586405749464   14.57231463715813   16.61419032867353
H         6.67883175680083   14.62414936675112   15.51138238478828
C         6.60364553776495   15.99563167594901   17.17277111654473
H         7.48087707542026   16.57532074535095   16.87683282070140
H         6.58141878828129   15.94475501713437   18.26493093596176
C         5.34233224955270   16.69377584659417   16.67206377867168
H         5.30153489706304   17.70473197678930   17.08040237015731
H         5.38170125303476   16.77485444414012   15.58335487449593
C         4.09741570519741   15.91171989058635   17.07836257236518
H         3.20405515728466   16.39909871721557   16.68325166089423
H         4.01675479654222   15.89767223868983   18.16783948645088
C         4.18138324892532   14.47995749808405   16.55878777693138
H         4.18997424075337   14.48861260392589   15.46617802982161
H         3.30480281536071   13.91293537637531   16.88085452459071
C         5.44796559983972   13.79594394095370   17.06482353796351
H         5.42770136113043   13.75623190372024   18.15621899721184
H         5.48875914498057   12.77455574721195   16.68473379152320
B        12.35856352258812   16.46520224296615   17.25381352126021
H        12.55656020777402   16.43337609276038   18.41793130341570
B        12.06653009006326   17.98226786856873   16.38559675913912
H        12.13488646846321   18.98995396527655   16.98255856537612
B        10.73912089103983   17.72477027796429   15.25859458304864
H         9.93034002549079   18.56023189925369   15.10361568046614
B        10.20618674748823   16.04739844382449   15.41437050537985
H         9.06650610082547   15.73371534672561   15.41009615166732
B        12.85089883333992   15.25275922074804   16.09012760882545
H        13.51321968209535   14.34095775694476   16.44789295914465
B        13.42161128084621   16.93013294589209   15.92557486990531
H        14.54230581188879   17.23220522876974   16.12122582735688
B        12.41366462714945   17.70870687326681   14.66950756436360
H        12.83242824377718   18.56578912055467   13.98113418260522
B        11.24117246307201   16.50492686979399   14.06519823874957
H        10.83362498523009   16.50610960607662   12.96021385850978
B        11.52858116263848   14.99477179315600   14.96688364861518
H        11.28297252190358   13.90622578482705   14.57452327676306
B        12.90631697093010   16.00744904176725   14.48206255971582
H        13.67369390008215   15.65491658901033   13.66172535724315

