53
CSD_code = ZIHNAH | q = 1 | S = 0 | Stoichiometry = C20H29AuN3(1+) | MND = 2
Au        5.71127554576071    7.35830352253365    9.66353976175678
C         6.85072506281432    8.51581253547873    8.48614948792138
C         8.07005010420036    9.24529308719992    6.78409020331310
H         8.54820276102062    9.22598192575469    5.82798632133229
C         8.05752154982121   10.21522802259691    7.72994556146104
H         8.52251298275386   11.17799823619143    7.73118738157553
C         7.07921971389219    6.97338810558106    6.55168819771192
H         6.44754183242606    6.36069386180455    7.20709476828517
C         8.38660378887821    6.22547684569175    6.28218104485730
H         9.03497138000680    6.83258015277103    5.64841170796422
H         8.90710408055215    6.04420900692154    7.22511334578360
C         8.08788923192085    4.90406286962494    5.57836703741236
H         7.48841660899799    4.26935616118836    6.23475166074071
H         9.02318161420589    4.38264247784538    5.37373540798245
C         7.33197638559044    5.14993119523913    4.27602829729723
H         7.95997493548850    5.72643619265010    3.59416216912198
H         7.10671485031444    4.19777021294046    3.79544843795985
C         6.03734380729592    5.91215690223219    4.54207504068562
H         5.37831134647679    5.30629036395939    5.16787998226019
H         5.51922526125177    6.10636128466255    3.60271668132585
C         6.33002895804040    7.23608712760656    5.24341928843110
H         6.93868763566282    7.86286359276280    4.58971136879888
H         5.39973441397568    7.76837187164016    5.45360273639459
C         7.03232062720637   10.49130282057912    9.98177295931182
H         6.41202590796534    9.83749696391602   10.60771133302059
C         8.32588227577479   10.81517812097987   10.73194251449399
H         8.96237185175495   11.44990916072267   10.11345206158011
H         8.86976500529300    9.89168035346333   10.94232588138290
C         7.99753098728992   11.54583599506790   12.03160016185894
H         7.40996282566978   10.89110858196331   12.67903720133374
H         8.92261460836081   11.78894119386099   12.55473140347073
C         7.20986020058409   12.82070994111723   11.74471745698615
H         7.82489614600522   13.50333855589287   11.15531225877793
H         6.96366114930768   13.32030124576039   12.68179496819842
C         5.92941797871560   12.50071055651284   10.97924615698563
H         5.28147286648810   11.87409463509976   11.59616045994695
H         5.38875282898434   13.42063773404515   10.75571369918023
C         6.25184997828250   11.77192586045777    9.67723783945070
H         5.33193612406233   11.52285385816199    9.14369703793506
H         6.84880674864462   12.42378306949939    9.03738883617426
C         4.08160335674894    4.97699325982929   10.47329908814366
H         4.34609444832411    4.69203488551893    9.46634749471721
C         3.31005482511817    4.14404238746613   11.26201126892550
H         2.96812125507059    3.19963613124402   10.87107969743795
C         2.99173027820110    4.54634969492693   12.55009768576870
H         2.39232039158914    3.92070509237571   13.19273106680033
C         3.46328823993881    5.77327945030526   12.99127686537276
H         3.24332080944216    6.13261231990264   13.98333344768940
C         4.22913644656423    6.54186820148589   12.13467784237591
H         4.61087803001062    7.50135918441368   12.44889165585847
N         7.32334197187580    8.20953519089749    7.26596782929162
N         7.30386900362007    9.74931247497980    8.76791432402517
N         4.53729898175807    6.15646752467329   10.89604361313160

