55
CSD_code = ZIHPUD | q = 0 | S = 0 | Stoichiometry = C22H29Cl2NTi | MND = 8
C         7.66630895587575    1.78800149411552    4.52433791801485
C         7.53798237733542    3.19832631657193    4.34773476365916
C         8.17962819024088    3.54415044336578    3.13221626352279
C         8.72434723340953    2.36022673593629    2.56495702690779
C         8.40847497895243    1.27007790707866    3.41857056489412
C         6.89010606353004    4.14360857583340    5.31618759918847
H         7.64966030955071    4.72283427489654    5.84692441841641
H         6.30077279609671    3.59077598966018    6.04823020632789
H         6.23140556207586    4.84298697763904    4.79916474587379
C         8.33617631473103    4.92997889938153    2.58189545754075
H         7.56951278663771    5.59247283585237    2.98087233271679
H         8.25779612946708    4.92928172154633    1.49361138484115
H         9.31480191163792    5.33542578705949    2.85100099592726
C         9.61813590321836    2.28240464223506    1.36370008199496
H        10.66317014783804    2.37910581889957    1.67028984598160
H         9.39695103825478    3.08133314490910    0.65731706857882
H         9.49623129281116    1.32839574039419    0.85148809239354
C         8.93958362898264   -0.12659083597919    3.26899340174933
H         8.48333731647832   -0.63489758676175    2.41449174256265
H         8.75001459467306   -0.70467686117308    4.17260928661426
H        10.01800024700218   -0.09626890558878    3.10279924591063
C         7.17539355846454    1.03593644391430    5.68783599558006
C         7.64791888190131    1.35170869307743    6.96028364266912
H         8.38727484177090    2.13287003250921    7.06269363015982
C         7.19401329793436    0.67165524767712    8.07459708361330
H         7.57193359552571    0.92474730508693    9.05385564096443
C         6.25345561086086   -0.33321122285824    7.92797466181261
H         5.88970334103117   -0.86840040445432    8.79223337155544
C         5.77318878548435   -0.64831340766603    6.66883188570655
H         5.03413110044004   -1.43058134453466    6.56417792381350
C         6.22247071516357    0.02300504985851    5.53871142532448
C         5.67664870071795   -0.36033283782477    4.18046514790020
H         6.40211161458702   -1.03180428211088    3.68507688786237
H         4.76813766434468   -0.94784935555798    4.35219438671039
C         4.08984056412211    0.70134341077654    2.64608277692289
C         3.85653205470666   -0.59030018474806    1.84526631359356
H         3.81219807517025   -1.45674160114012    2.50878945701557
H         4.69178224336973   -0.72735145399282    1.15145535831383
C         2.53970193634345   -0.47912984497293    1.08149216979389
H         2.60443180723926    0.34705095315522    0.37011587574163
H         2.36332495769349   -1.39603922451799    0.51525681302935
C         1.38175195151981   -0.23239922259662    2.04564409436502
H         0.44805071927750   -0.14387952683793    1.48710377991372
H         1.28590949465730   -1.08558791312652    2.72195557210016
C         1.61746223910996    1.03652936057983    2.86153911102259
H         0.79151297350036    1.18912276742353    3.55943690039198
H         1.65381184055406    1.89820460835942    2.19134624221497
C         2.93301638368481    0.94552944529163    3.62915000934240
H         3.12962556014486    1.87815775067304    4.16896765986474
H         2.87614016083113    0.13350762504423    4.35822211967676
Cl        6.54758735700761    1.50810727491299    0.57142133392421
Cl        5.09817352276717    3.82212358845898    2.47845218397369
H         4.06558825014284    1.52521606834575    1.91313422684121
N         5.38649989907957    0.75631365750313    3.30085716034954
Ti        6.43047852205145    2.08873942842320    2.67928671432028

