69
CSD_code = ZIHPAJ | q = 0 | S = 0 | Stoichiometry = C27H36AuCl3N2 | MND = 4
Au       -4.36770541391006    2.67591471080232    2.31023385209918
Cl       -4.96257777583572    4.46175335086038    3.57032053642021
Cl       -3.71192334862972    0.91176718138134    1.04975859387492
Cl       -6.51957070615696    2.32625042835430    1.73827550199826
N        -1.64100591101284    2.09283419763262    3.40940804214716
C        -0.40289288700754    2.64980899718865    3.56854946791268
H         0.40133289169553    2.11954838322754    4.03383518896922
C        -0.46294550048397    3.90270591495091    3.05581388142350
H         0.28307074348651    4.66489542386513    2.97183423180780
C        -2.45338927906253    2.97617826936163    2.81546362407936
C        -2.22351534849202    5.29516632921583    2.01975330537604
C        -0.41955905590264   -0.16511288630003    2.05253046237448
H        -0.37495131067179    0.88294991781235    1.74246858069162
C        -3.01315450323005    6.50983973026745    0.12498546764162
H        -3.26261713325665    6.55876239901385   -0.92283069748100
C        -2.53380755363533    5.31967465633983    0.65801025030026
C        -3.17549520373474    7.62877575881576    0.91698858525378
H        -3.55826735686372    8.54194062790875    0.48646289209884
C        -4.96860937415369    1.71587842694826    5.79952082155065
H        -5.35461993145646    2.66199259267402    6.17034059525538
H        -5.26474479059247    0.92849635736115    6.48804807350078
H        -5.43004900763519    1.51962090212985    4.83272996309310
C        -2.69517626300367   -1.76211666670167    4.62389837056698
H        -2.97571036638702   -2.75835538984804    4.93159632914874
C        -0.72241547023771    7.24454881741104    4.51917739978959
H        -0.42480480636528    7.20588877387556    5.56443570007438
H        -0.89828446785384    8.28296253548199    4.25034074746310
H         0.10179471351160    6.87443138359624    3.91232903544534
C        -3.55877779554401    3.80747811222037   -1.06754196472866
H        -3.43492754459143    2.84661013389794   -1.56049159702792
H        -3.74726777233063    4.56300153861276   -1.82564051618124
H        -4.43263792559814    3.74416946411411   -0.42054473742707
C        -0.81005418546389   -0.98213029388117    0.82012426505111
H        -0.12788340597371   -0.75958783250057    0.00288151370942
H        -1.81926685780526   -0.72428822099783    0.51241863482866
H        -0.76396653394211   -2.04897425675557    1.01883901608444
C        -1.42827502867348   -0.31755401483191    3.16696616755326
C        -2.78078038701384    1.85898956712616    7.04087716891801
H        -3.16610869075139    2.70836088987525    7.59918317744622
H        -1.70194333364897    1.96892788058002    6.94230877743887
H        -2.98185872547136    0.95209281639983    7.60600031315364
C        -1.11555448648139    4.41465408882348   -1.17069424816602
H        -0.93614365823228    3.55709948203340   -1.81421002203869
H        -0.21601447419926    4.60516146560082   -0.58761111375028
H        -1.30809309498539    5.28302203122341   -1.79582228610697
C        -2.89450559710410    0.62611197833958    4.88646376213574
C        -2.84436732542554    7.58526626946853    2.25707391462104
H        -2.96754667849667    8.46868947557347    2.86245250497063
C        -1.99227000559917    6.41368806944773    4.30351549613573
H        -1.79294340796298    5.38706732879156    4.62470184971741
C        -2.36413554294496    6.42021442243409    2.83892475159123
C        -1.79616596393971   -1.58752664252305    3.59042759271022
H        -1.37703321672958   -2.45186086607554    3.10126116697989
C        -2.30767070005634    4.13359931648914   -0.25011657955175
H        -2.06669971383752    3.24741935561411    0.34452774092070
N        -1.73784471344078    4.08647199064090    2.59785254796087
C        -1.99820610637236    0.77727239093886    3.82441445894275
C        -3.44737528571121    1.79896524919309    5.66243629224267
H        -3.21924873356828    2.73423190069084    5.14301981059555
C        -3.13045399121610    6.94444825270846    5.17648250278090
H        -4.04436095293038    6.39775948898306    4.96199101464014
H        -3.30440565355506    8.00237440304184    5.00244511936544
H        -2.87961109852556    6.81010318190557    6.22627797776718
C        -3.23003719206547   -0.66601744698041    5.27081369272745
H        -3.91909914154435   -0.81399826121235    6.08675981334069
C         0.96725942010336   -0.58581635479533    2.55229089815564
H         1.26404953731881   -0.01385082724911    3.42949155575813
H         1.70830173552861   -0.42933566926275    1.77192939700498
H         0.96951864558241   -1.63891098137177    2.82184136683682

