66
CSD_code = ZIHQOY | q = 0 | S = 0 | Stoichiometry = C33H28Cl2NPPt | MND = 4
Pt       10.29592252582723    1.50359365370506    3.50926005026681
Cl       10.11352556913605    2.98408487497006    5.40764121522906
Cl       12.98636397096167    4.33310290675963   -1.10164715008169
P         8.29204678862660    2.19210987635747    2.75921821757754
N        12.05579979236409    0.82650251124964    4.20322847670779
C        10.47700250789133   -0.06030464265385    2.15961009788706
H         9.72640237343994   -0.12029474529813    1.36734047271026
H        11.47125066241775    0.01746851092878    1.70130034999759
C        10.39322126997019   -1.24073605597149    3.04159532718417
C         9.41512790343020   -2.21880048968234    2.85903066930308
H         8.68141489808032   -2.08186981522781    2.07724966105881
C         9.37146984851409   -3.35112010251195    3.64929487087868
H         8.59475635559090   -4.08491496071534    3.48972449336425
C        10.33011177543448   -3.56147922954019    4.63018551529481
H        10.30679633910743   -4.45642163393672    5.23335750477013
C        11.31265315019570   -2.61254117482234    4.83402119555946
H        12.05327131718156   -2.75478217549923    5.60866898404519
C        11.33550944906552   -1.44270138128634    4.07841385069042
C        12.31055599451299   -0.40988444206182    4.37300055531034
H        13.27869733594085   -0.72487777993102    4.77117114311298
C        13.05997709421024    1.84768238347624    4.36467041443247
H        14.03019962365364    1.42059678597413    4.65033468693623
H        12.71159954436626    2.54865823025139    5.13198234960202
C        13.12696789588167    2.54466030321342    3.02398792875959
C        12.23459903406098    3.57792662118214    2.73723070162758
H        11.60384403819240    3.97785419817907    3.52039057557051
C        12.19879143636608    4.13839884211942    1.47096814674006
H        11.51300421013727    4.93941589022996    1.24348114349282
C        13.04855414915028    3.65452101194671    0.48858505851489
C        13.95015418495251    2.63965381309844    0.76170533468498
H        14.61323418414159    2.28095891171221   -0.00984822357910
C        13.97991098091600    2.08474624149502    2.03010036648690
H        14.67398230677512    1.28359323173667    2.24139096942240
C         7.41920867635377    3.50370464584260    3.66531615375016
C         7.97544041118500    4.77836358315762    3.59368919012966
H         8.86643817968841    4.92904564005740    2.99759930497858
C         7.40462125521133    5.82387011352758    4.29059209513526
H         7.84275695794141    6.80987620341215    4.24167215250756
C         6.27559798804478    5.60280659507914    5.06487232292751
H         5.83228756838852    6.41846185732729    5.61702623361636
C         5.72257947009196    4.33633684537396    5.14011496640564
H         4.84703234970359    4.16374166885952    5.74927699624075
C         6.29263690148976    3.28272158613611    4.44535125974429
H         5.86627604805304    2.29141283227055    4.51467304428562
C         8.17306319997069    2.81437351925124    1.05538265495823
C         7.00651263255967    3.40335335569224    0.57618419558870
H         6.14426596473622    3.49125256217353    1.22384002420198
C         6.96144733298739    3.88530008463537   -0.71913824877319
H         6.05526686434518    4.33970462133884   -1.09279875691503
C         8.07852323082921    3.79405719035047   -1.53558911578414
H         8.03956335754675    4.17783601730009   -2.54437601269748
C         9.24571817284953    3.22211394585563   -1.05650268283159
H        10.11989861259044    3.16438617051212   -1.68756997493860
C         9.29301502392135    2.73258077537441    0.23664670066909
H        10.19920656737393    2.29214597777621    0.63420258653484
C         7.17658010982484    0.76230850934552    2.86874953727444
C         7.32788887594770    0.00279262118856    4.02837862441167
H         8.06106344562682    0.31619618385826    4.76655350448252
C         6.56127907611763   -1.12890189527195    4.22492802178061
H         6.67981424952408   -1.71445693682324    5.12444765848580
C         5.64966421317444   -1.51786282285829    3.25495236328059
H         5.05263813824133   -2.40612281484618    3.40074695069877
C         5.51005232339141   -0.77611859468309    2.09364761784225
H         4.80696959205284   -1.08901775132563    1.33516925076877
C         6.27058498901179    0.36460567335386    1.89551088099176
H         6.16728971072735    0.93573186731075    0.98380554668173

