52
CSD_code = ZIHQAK | q = 0 | S = 0 | Stoichiometry = C23H25Cl2NTi | MND = 8
Ti        0.36397729401629    6.74808281405045   15.47586476419994
Cl        1.94068146465781    8.25408265725003   15.74801585818934
Cl        1.18136228141500    5.32498000986646   16.90263319212437
N        -0.96233818507564    7.77132454882496   16.18981365359440
C        -0.97569017721065    6.75531778654005   13.66193947715863
C         0.29587041613245    7.23472217093033   13.24639406437015
C         1.23546367389262    6.17840592241059   13.41783208159399
C         0.54301382077131    5.04008390940904   13.90975620847955
C        -0.81853117896903    5.39964212792048   14.08814766057309
C         0.57532262816217    8.56020094081462   12.60221433743689
H         1.27616650391211    9.14682604169836   13.20093090392811
H        -0.34882875654677    9.12455665574523   12.48143597954781
H         1.01924040633797    8.40927883683450   11.61656358038238
C         2.67965451173272    6.23735896108320   13.02147288651747
H         2.79154127180029    6.00616759790610   11.95887276072583
H         3.26765921541020    5.51699988536625   13.58998066795822
H         3.08309593245475    7.23501866520892   13.19910202993002
C         1.12552397928799    3.67050590628336   14.09243290886916
H         0.47026994850666    3.04853299775810   14.69883485304687
H         2.09810730142630    3.71693991250497   14.58097994694303
H         1.25537698620099    3.19000336992073   13.12000006134136
C        -1.92423511397141    4.50583192531263   14.57032023525860
H        -2.19423086741368    3.77886407844572   13.80044305260530
H        -2.80932262077427    5.09717303069018   14.80920101385400
H        -1.61602383303347    3.95331210647709   15.46126881284032
C        -2.24486716384820    7.50496884730021   13.60708552694460
C        -3.22427468503670    7.13697754357330   12.68916301478616
H        -3.03738823241935    6.29780368392780   12.03454388664098
C        -4.41395925943379    7.83729984677962   12.60595760138267
H        -5.16471811889871    7.54412766029654   11.88735713407124
C        -4.63677193883937    8.91406982363459   13.44661824326572
H        -5.56211568284002    9.46715332271218   13.38719485575244
C        -3.67564980974422    9.27633210145086   14.37501910419653
H        -3.86228116120896   10.10821612362790   15.03942535327582
C        -2.47548915952467    8.58506207250311   14.46726783461467
C        -1.45380058936956    8.96121138277799   15.51852785680987
H        -0.61426939041682    9.51116905940448   15.05281364116097
H        -1.93443933374635    9.62903284039835   16.24562549268697
C        -0.97952298380008    7.73987596534598   17.57679499476646
C        -0.61342784796792    8.83325669670023   18.37085442555428
H        -0.29150928675569    9.75344533913782   17.90080575195735
C        -0.61861476604319    8.72709850003263   19.74883353290768
H        -0.31832249971743    9.57836770951691   20.34349710277344
C        -0.98982818020982    7.54793990809202   20.38201344922160
C        -1.36485938581670    6.46376014807231   19.59294951164652
H        -1.66339380093406    5.54026519870320   20.06873487827614
C        -1.36958133157420    6.55320799898167   18.21699666829022
H        -1.68536319780401    5.71224008944170   17.60337036961697
C        -0.96999950567924    7.42957372501187   21.87566562184653
H        -1.83450256740243    6.87163964407628   22.23005495311810
H        -0.96648851363656    8.41051941847026   22.34432148251827
H        -0.07438851028019    6.89597249053246   22.19545671995882

