71
CSD_code = ZIHQIS | q = 0 | S = 0 | Stoichiometry = C34H32Cl2NPPt | MND = 6
Pt        4.79218231791932    2.11991831372317    3.72297298730543
Cl        5.82561064654658    4.00322924593722    4.89084884636917
Cl       -0.43174471215775    7.65732334192465   -0.84415168536294
P         2.80441015738978    2.36196901569577    5.18063407780749
N         3.83906477330147    3.47668175909727    2.26834296751103
C         5.69170815489358    0.74932681715877    4.99075169974971
H         6.21572067799289   -0.04184457764821    4.45440897735321
H         4.93714556517585    0.29208380555379    5.63716615628722
H         6.41694881879558    1.26920276064543    5.61891878881215
C         3.86216471481397    0.74961617702844    2.56080591264882
C         3.78993943217139   -0.62872037657876    2.68215795438840
H         4.30812924145697   -1.13431199455710    3.48316120305871
C         3.04879419928003   -1.38318184559246    1.78550990210690
H         3.00169386367377   -2.45615079758291    1.90359455951554
C         2.37076235489062   -0.77662611263192    0.73836357993701
H         1.80156883802634   -1.37402868841144    0.04186195776656
C         2.42699624278237    0.59288004432415    0.59480624447479
H         1.90118309302121    1.08388430542343   -0.21248064435394
C         3.16120209662339    1.35966910233910    1.50304205302232
C         3.20901128221655    2.79703664134092    1.39266824893915
H         2.69556713253859    3.27435571508354    0.55451000355305
C         3.97140549018939    4.91021540328092    2.18323038139684
H         4.95072107852249    5.12246672914668    1.73644711353298
H         4.00685499882691    5.28922992276321    3.21064935700521
C         2.88039653937569    5.60388036247210    1.41382428563426
C         3.14717310820336    6.28018134885299    0.23087052307788
H         4.15720381080537    6.31775718585318   -0.15070729008853
C         2.13480367687909    6.91588579831338   -0.46669871694502
H         2.34778247444125    7.44386401121881   -1.38285069459976
C         0.83980174421716    6.86740440721158    0.02196363930204
C         0.55127464333446    6.19344265581827    1.19865996031903
H        -0.45992098093503    6.16440051203044    1.57297794851298
C         1.57235874109475    5.56656317453720    1.88646276237786
H         1.35263594185545    5.04519367342398    2.80606411750663
C         1.84215956739146    3.91320905672024    5.25258152952027
C         0.45254277035275    3.96757581439976    5.22934202207765
H        -0.13031880258746    3.06313225787741    5.12800807212120
C        -0.18991505193342    5.18892769516592    5.33720581340101
H        -1.26961152755479    5.22656031871928    5.31351079795969
C         0.54188443979289    6.35650363519053    5.47943913180426
H         0.03307864201025    7.30592887994355    5.55635892642594
C         1.92511854803742    6.30168033900834    5.53538420048012
H         2.49923398689202    7.20732908893996    5.66314066414084
C         2.57441870707386    5.08541245515750    5.42978845282900
H         3.65438629677464    5.03051464195958    5.48800872489606
C         2.94675213144799    2.13975083969873    6.98664592094347
C         4.14950088763561    2.44693820869900    7.61116670551808
H         4.99231970884534    2.76675227088715    7.01527708215090
C         4.25468570831083    2.35871193050488    8.98833583576301
H         5.19159393632018    2.59507345920290    9.47036998890079
C         3.16176054940753    1.97245703166732    9.74513443608021
H         3.24429021647522    1.90065281400869   10.81974432837209
C         1.95483752003742    1.68749187258735    9.12510896255245
H         1.09742678500432    1.39986861510600    9.71637689004329
C         1.84094892278857    1.77724621873800    7.75089921149769
H         0.89583644650441    1.56435397228695    7.27045491996291
C         1.60806023945965    1.09051691928866    4.67121007600943
C         1.62638939151968   -0.17074469433552    5.25912874378578
H         2.27472376207429   -0.35709283933538    6.10425809473312
C         0.82147820787406   -1.18154712316296    4.76777174936318
H         0.83721354604843   -2.15496493965960    5.23566917062412
C         0.00283422266558   -0.95096594213906    3.67501273946588
H        -0.62494496942879   -1.74144231746058    3.29180800533481
C         0.00087032978076    0.29267147517352    3.06549283215788
H        -0.62369932200115    0.47175932467384    2.20251510044317
C         0.80559419814980    1.30460956169513    3.55268667821672
H         0.81794907732296    2.26803296360273    3.05929460057512
C         6.46094663439580    1.93410820101837    2.50893678902968
H         6.63119654445547    0.92107271270874    2.14477406340958
H         7.34083258948510    2.25815458988458    3.06571297828525
H         6.33647500060415    2.59186285386914    1.64545858353312

