71
CSD_code = ZIHQUE | q = 0 | S = 0 | Stoichiometry = C34H33BrNPPt | MND = 6
Pt        9.31850858820206   -4.81880110357564   15.33408167070154
Br       10.44752830363294   -2.53505304404655   15.12794940043044
P         8.22680287974118   -3.76201618288846   17.30634537758251
N         7.57888408865194   -4.10284818244539   14.15459458330282
C         8.14052071806394   -6.46326509963334   15.46896919450756
C         8.36324973780889   -7.68923291672559   16.07532780073618
H         9.33250061745551   -7.93117356281670   16.48630177775432
C         7.35139770115835   -8.63323317719951   16.16504727240053
H         7.54799181803729   -9.58052548837056   16.64621627495844
C         6.09176491942508   -8.37368190207871   15.64611590183306
H         5.30694991333677   -9.11068646760031   15.72913324680877
C         5.85306431675014   -7.17308926213618   15.01274806954716
H         4.88159137866133   -6.95997424304245   14.58760000873680
C         6.86982536596205   -6.21959242311616   14.91562887874389
C         6.65449460546866   -4.97768408081710   14.21657810033907
H         5.68710000016121   -4.81283613750549   13.73218732598654
C         7.40398552287559   -2.91708538818587   13.36094627223637
H         7.84835762093703   -2.06988198655420   13.88902213792419
H         6.33454928696822   -2.71672059938411   13.19461482536435
C         8.10359128334179   -3.10348592766897   12.03131777563182
C         7.61970421444932   -4.04094237240260   11.12688512103144
H         6.73933043098225   -4.62107827251760   11.37047874385775
C         8.26214319425401   -4.24484755619208    9.91953492319542
H         7.87874731855199   -4.97762704643014    9.22425486852926
C         9.39670153226847   -3.51432350343276    9.60767883791853
H         9.90188688822641   -3.67807529083268    8.66719593677243
C         9.88161223897777   -2.57967178071057   10.50560228249423
H        10.76849859858876   -2.01088859222780   10.27049090537159
C         9.23942957074115   -2.37316210722078   11.71460614238855
H         9.63263286011409   -1.65553460840607   12.41788718978867
C        10.20192454382255   -5.58198045477827   13.61909578683455
H        10.29403936110502   -6.66826765946445   13.61788976427265
H        11.19537713108214   -5.14592355669479   13.50154113468589
H         9.59640149191411   -5.28810770503535   12.75970875078885
C        10.93696285823615   -5.64636271181376   16.34570863128450
H        11.19173483052000   -6.64126498263478   15.97836050670909
H        10.73623381411169   -5.71960678724013   17.41816749357885
H        11.81416043212162   -5.01012127151078   16.20253139990398
C         7.22623697550270   -4.80128909031415   18.43875697099502
C         7.78430432438946   -6.02458868497795   18.79693845516886
H         8.74066612571393   -6.30819780326824   18.38152344387380
C         7.12890277365097   -6.87280615032333   19.66842222023672
H         7.57229170424977   -7.82147888477343   19.93261419191070
C         5.90425127911470   -6.50418417310494   20.19908595913794
H         5.38410218825412   -7.16562271554741   20.87594495766823
C         5.35046998883528   -5.28042042973707   19.86335345933549
H         4.40052803715449   -4.98343309318028   20.28416237362273
C         6.00603884382583   -4.42909003507842   18.99178053422071
H         5.55681923909447   -3.47739104846728   18.74528824665360
C         9.16115753630101   -2.83476145320139   18.57701060283969
C        10.54857478334604   -2.84644828466636   18.60945361220744
H        11.10482628022475   -3.37560641927118   17.85238958052553
C        11.22545813630740   -2.15048705114975   19.59659368192520
H        12.30501542913120   -2.15649956268752   19.60840788790391
C        10.52285465771168   -1.44570302938487   20.55722683062877
H        11.05122627314066   -0.90098646214983   21.32570002228445
C         9.13658846742108   -1.43475837185861   20.53036306168577
H         8.58436559293360   -0.88319904133556   21.27748200672107
C         8.45646542272620   -2.12625300573151   19.54771673894658
H         7.37578202006153   -2.11143027462732   19.52889757229403
C         7.04646108529353   -2.50219613130258   16.73784919372463
C         5.77235272718629   -2.87346076049943   16.31155555936349
H         5.45838945833119   -3.90702142592482   16.39306088974392
C         4.91426564221326   -1.92820296770729   15.78190041827248
H         3.92385888797002   -2.22122319743956   15.46251722140331
C         5.32398815667975   -0.61003103087226   15.65471457029476
H         4.65265748722588    0.12494474424464   15.23572136478109
C         6.59697445217319   -0.24072154582957   16.05608934665103
H         6.92525900311817    0.78179939985436   15.94444710588838
C         7.45870807844108   -1.18028404507434   16.59355726035583
H         8.45937896554039   -0.89461453923606   16.88583034376980

