65
CSD_code = ZIHRIU | q = 0 | S = 0 | Stoichiometry = C30H20N10NiO4 | MND = 6
Ni        4.94369381566598    8.94098161593366    5.65428888104419
O         3.12853719963831   10.47743209516680   -0.48329611987473
O         3.53931745674921   10.41355575505522   -2.65083437267527
O         6.47485989877854    7.46369258036112   -1.17944418623988
O         6.41576341724179    7.38739961976303   -3.38570801817946
N         5.31667173537650   10.42326258512722    7.37924977825048
N         4.68067486177871   10.69129668748926    4.81162196051084
N         3.04373084650994    8.53820888081751    6.14150679734658
N         4.11659057969857    7.82599810256216    3.78652951019463
N         6.71927865197842    9.03769831391095    5.14063521144891
N         7.56297253534840    9.64022393310565    5.68506289858028
N         8.45752624635521   10.21918955706638    6.08264256000371
N         5.38086940640790    7.43427011743939    6.62264382807783
N         4.98113155500218    6.38550642339816    6.29295531232236
N         4.59012080111108    5.33783856188466    6.07974305522740
C         5.82312862491631   10.20777388609762    8.58141264310852
H         5.64766355775761    9.22372028420794    8.99562798905132
C         6.54583831324182   11.16627119005648    9.28003559482481
H         6.95040887064137   10.93787427987243   10.25287696391351
C         6.73110897465717   12.41441361191846    8.70538133465524
H         7.28274713679127   13.18439231569439    9.22281174922247
C         6.20761144271811   12.65155760914782    7.44642309748304
H         6.34750724365903   13.59980786995323    6.95094757256631
C         5.52081527972922   11.62189773397509    6.80718092022908
C         5.04739816605740   11.73933494514726    5.44017638654142
H         5.06264555489561   12.72161254835448    4.96582102691484
C         4.30580488179660   10.72891861259506    3.46738887810519
C         5.26646269720665   10.81389904644702    2.47322128335685
H         6.30960561334060   10.89952349787502    2.73766718003383
C         4.90003142745373   10.72622800513500    1.12941377072096
C         5.84256753373502   10.75577877675813    0.04801078986350
H         6.89230570300658   10.85479961912584    0.28257329057763
C         5.41329229995081   10.65572569058521   -1.22274523867705
H         6.08262306071149   10.66561692285357   -2.06806751515603
C         3.99990680493819   10.51131908652581   -1.54344755014647
C         3.54438349492847   10.58092270506993    0.79737552469960
C         2.57680154945647   10.52737521511277    1.80078965662010
H         1.54081905631699   10.42733708695395    1.51877676290097
C         2.95501645709792   10.59195464839800    3.12098991666380
H         2.21382083350978   10.53364647422626    3.90437723531880
C         2.46656902291105    8.94410444866509    7.26306505192777
H         2.99175969083384    9.70630046284452    7.82336067577999
C         1.26543138472632    8.42989543828059    7.72492319455865
H         0.84567084993156    8.78826578156406    8.65118438880834
C         0.62971714290948    7.44350494898745    6.98393675519838
H        -0.29993706932630    7.01108028005740    7.32096446434833
C         1.21607144961128    7.02592830776436    5.80534218234926
H         0.76040940143237    6.26465154085746    5.19194721285752
C         2.42631465851390    7.59525728408577    5.40728524933331
C         3.06822890004016    7.20192877998869    4.16818246004333
H         2.62513956411463    6.37654112836410    3.60912888514198
C         4.67487517987539    7.61247951892289    2.54133768689405
C         3.88233289754751    7.48170330909264    1.40691668824637
H         2.80493650473844    7.47780518631742    1.48968612111422
C         4.46100012732837    7.42720621488120    0.13826508719045
C         3.70180698059507    7.34124786380655   -1.07632468048350
H         2.62385766070127    7.30231626544697   -1.01093975956296
C         4.33062276508764    7.31961376934843   -2.26478202896062
H         3.80148205792390    7.27145404125477   -3.20209512240323
C         5.78152756374132    7.38774955313410   -2.36296018586351
C         5.85924127502829    7.48024988635620    0.02092892418260
C         6.65637102476552    7.57591801056952    1.16414253137264
H         7.72773915947564    7.60019771273084    1.04680196898020
C         6.07216425004400    7.65306755698638    2.40340676331258
H         6.66741397115896    7.74687621863679    3.29927912631068

