45
CSD_code = ZIHSAK | q = 0 | S = 0 | Stoichiometry = C14H28PtSi2 | MND = 6
Pt       -0.16107478848088    4.57033557251435    4.85964909296872
Si       -0.66525777332199    7.52908305450859    3.99472567247053
Si        0.09920913849748    7.44891404781524    6.21349958822428
C         0.22295396695992    5.95482232342495    3.37884289880077
C         0.99512329948614    5.76721237372772    6.08414477487051
C        -0.26998414125910    9.06743695220640    2.92756000711746
C        -2.55890979537137    7.23867778901861    3.87540271278864
C         1.27465394305693    8.83959745087674    6.80464822070566
C        -1.30020481248568    7.35265019467743    7.52398683898560
C        -0.64573515164403    2.96402588274007    3.42242128205446
C        -1.84399721192642    3.54655354970487    3.74005041125511
C        -2.85413830280910    2.97454357581773    4.70332032061739
C        -2.65270315372032    3.45747490115173    6.15538853091523
C        -1.21558373141377    3.64012648084018    6.57311146607083
C        -0.17487644701118    2.80474269913613    6.27037162529366
C        -0.30777565920840    1.50928958606452    5.51022115766674
C        -0.08156819364224    1.68900549233262    3.99689451586831
H        -0.14526104690713    5.61226782259839    2.40560469811986
H         1.29367320757168    6.14943282074798    3.26598059762147
H         1.98435286475038    5.91581958163547    5.63829265393998
H         1.15518542602528    5.29127104154284    7.05817773512074
H        -0.80424608092959    9.93962787648998    3.28974950108324
H         0.78980689757056    9.29820500351583    2.95119529795187
H        -0.55116868018580    8.91781603205784    1.88942034871811
H        -3.11119154477662    8.09222502135973    4.25544964681804
H        -2.88016882979266    7.07074469885749    2.85137517323450
H        -2.84812305566385    6.37099887437393    4.46292409859672
H         0.75620572268716    9.79152272553108    6.85593359817348
H         1.67588727697279    8.63160341489994    7.79207722045771
H         2.11374388906204    8.95892902808821    6.12726443230258
H        -1.75390202284511    8.32748556231195    7.67114053710328
H        -2.08680372637959    6.67119379391567    7.21570668308317
H        -0.92768096252813    7.01803174393538    8.48811523489828
H        -0.16771177570457    3.25790504397984    2.48820065228915
H        -2.22850399790361    4.30721023450758    3.06558456101140
H        -2.82325101056582    1.88505591694373    4.65649603901967
H        -3.85394490869433    3.27761163682933    4.38357897247285
H        -3.13994119194343    2.75568207634679    6.84214694947400
H        -3.15833695616077    4.42031994655853    6.27607494564899
H        -1.08559527250409    4.34606393065553    7.39158967795166
H         0.74790578104384    2.90997073670916    6.83707587626188
H        -1.28722277074781    1.07052227617231    5.70328204729521
H         0.43751066507774    0.80269505939517    5.88291735717472
H         0.99592391478445    1.68963024932249    3.80454266095470
H        -0.50347299702439    0.83316592415998    3.45796368655628

