69
CSD_code = ZIHVAP | q = 1 | S = 0 | Stoichiometry = C29H37IrOP(1+) | MND = 8
Ir        0.69560354524047    8.82362273856191    8.90375706102491
C        -0.27320853026845   10.26997169766222    7.35789641400448
C         1.08984343284319   10.60321802265957    7.72263482606208
C         1.06679388713404   11.07668534117948    9.08738993355314
C        -0.21885476889945   10.82730567014011    9.60018488438258
C        -1.05712173053077   10.34318433941325    8.51264078415526
C        -0.76541441731405    9.99935960154049    5.97465081493342
H        -1.58101903200896    9.27886178382862    5.97830850084824
H         0.03226734128572    9.62663712778008    5.33582141929009
H        -1.14012460950093   10.92605656464682    5.53667537014224
C         2.19294042251210   10.88462444680218    6.74998346635659
H         2.19699013621609   10.16610480613469    5.93289612950465
H         3.16186637881180   10.84795152598655    7.24212804825009
H         2.06430612203015   11.88160172239166    6.32567076551558
C         2.17925306746368   11.81728424949910    9.75678005628440
H         3.14676981038464   11.36964433963509    9.53833845246488
H         2.04871873423311   11.84426608147563   10.83546244210129
H         2.19422101475917   12.84607113484040    9.39372232845581
C        -0.74062807522067   11.28769370514532   10.92486773446476
H        -1.12041031067781   12.30667856561918   10.83241461630933
H         0.04104323543277   11.29106085279959   11.68204926562973
H        -1.55950425113470   10.66050002853192   11.27402593790699
C        -2.54498845623130   10.21225143417352    8.55256209779308
H        -3.00107676116248   11.10037839915789    8.11199084194922
H        -2.91317509884780   10.12203805670655    9.57147545923062
H        -2.88195935107907    9.34899535256333    7.98069170250389
C         3.57250539369130    7.70203212454979    8.64519734470945
C         2.59507965730212    8.31107677194769    9.46286620885825
C         2.98912198556824    8.74132484648665   10.72863085606274
H         2.26831183955192    9.22653668371212   11.37255340430091
C         4.28199194523692    8.58654525790762   11.19542322280555
H         4.54833268687905    8.94414526510752   12.17871454971574
C         5.23159514454934    7.96190458787323   10.39855704847513
H         6.23646744528598    7.81503675430484   10.76221739544522
C         4.87822968253305    7.52415832857289    9.14484197479615
H         5.60639044063636    7.00773443570469    8.53839812999294
C         0.82978053379816    7.36865134159485    7.56771588686161
C         1.98202544930944    6.95465776855488    6.89324173685224
H         1.88304753849560    6.47326317992646    5.92753260901558
C         3.26975602853188    7.19476222992553    7.32867623531577
O        -0.37850004232926    6.98569533308049    7.18366366085748
C        -0.57898650155525    6.05041015729365    6.12521152365150
H        -0.27871598550869    6.47551243089972    5.16520804120326
H        -1.64724778509546    5.84276519622576    6.10773812185758
H        -0.02798561062110    5.12628748818426    6.30932695009451
C         4.36168863701132    6.89191791478666    6.40134012270290
C         5.35593377392610    7.84492517751492    6.16384587055405
H         5.31771969023175    8.78946279701022    6.68565236909267
C         6.35571954264490    7.59906155111359    5.24298280041273
H         7.11013097645633    8.34851403874490    5.05889754368859
C         6.39410828777529    6.39338898569200    4.56012204696295
H         7.18217949364092    6.19880086463324    3.84953257191251
C         5.41883394083128    5.43720776464618    4.79473949439448
H         5.45023256647230    4.49377627043861    4.27156120310056
C         4.40318800021750    5.68729277717905    5.69789484417001
H         3.65921385838933    4.92948558095626    5.89517687756985
P        -0.23612826434659    7.33298685901520   10.46774749161936
C         0.45365543440557    5.63588922971565   10.44690544932904
H        -0.00049895212382    5.03878177242142   11.23618348058735
H         1.53039891395713    5.68355745552099   10.59721540031693
H         0.25662224352616    5.17119590633168    9.48403233198435
C        -0.14239496276853    7.71746591059466   12.25501225876423
H        -0.73792534002872    6.99797687344910   12.81515986161940
H        -0.51904679155879    8.71870801624344   12.44836216099133
H         0.89263893142789    7.65843018945551   12.58275924973830
C        -2.02233388665790    7.00842241017482   10.24992600449754
H        -2.21567167460441    6.73835334624026    9.21493473242637
H        -2.59045404683274    7.90326266321450   10.49068332141937
H        -2.33744195366716    6.19668787409310   10.90389825841559

