43
CSD_code = ZIHWOC | q = 0 | S = 0 | Stoichiometry = C13H23N3O3Pd | MND = 4
Pd        0.29738522078062    5.34300172024273    6.16053971965139
O         1.44122867159222    3.90912127560315    7.02257059301333
O         5.90241734816518    7.10195366107783    9.87399128233996
O         6.70684192812170    5.10858218267402   10.01812131127988
N        -0.76225958763228    6.81872989619908    5.09097310541587
N         1.66843790540341    5.38991076049880    4.34197079218573
N         5.83286495279775    5.89496049582715    9.67921076238378
C        -2.22227209885937    6.78519140643477    5.17125310267773
C        -0.28309893236011    8.10434110030045    5.60051266381602
C        -0.37389826929984    6.63575189811250    3.68436136799446
C         1.13415880145351    6.44928156904651    3.48534362304284
C         3.11129912433275    5.53662691042552    4.50071146115255
C         1.36786682217180    4.06297227453975    3.79917359668142
C         2.43737915357550    4.39047531303339    7.66766499810899
C         2.56915986211043    5.77572830948762    7.98005553668086
C         3.66540809535161    6.25748346356548    8.63937661738577
C         4.69295667863067    5.38918927184677    9.02356554377697
C         4.58183892525513    4.02001914814507    8.75469518661462
C         3.48757440843502    3.53228054854614    8.09795313898876
C        -1.01756995774624    5.16916986244856    7.72100503223845
H        -2.54180592557847    6.96854308841101    6.19492462893114
H        -2.58816447841217    5.80417040925084    4.86606302721674
H        -2.66778922271777    7.55113745531087    4.52162135577955
H        -0.64858662605962    8.24968684250894    6.61771908955669
H        -0.64231860505290    8.93522896787704    4.97694437853849
H         0.80827963959579    8.12712925718647    5.62371406656536
H        -0.90160228059990    5.75445951661811    3.30624310775733
H        -0.70150942388114    7.50367612422946    3.08812404898944
H         1.65148193110986    7.38296703749084    3.72343327769670
H         1.32252947024391    6.23111370490699    2.42072003074822
H         3.48935908067031    4.74313839912820    5.14446491067451
H         3.34280449482992    6.49315314903967    4.97181889235993
H         3.62856000466392    5.48076795605509    3.53233512399785
H         0.28495206691741    3.90974121048080    3.73673609238078
H         1.77524575165892    3.30538498266112    4.47145161474046
H         1.80962766149623    3.93121528110584    2.79991011949449
H         1.74484881280489    6.44870199970384    7.69581468026234
H         3.76312174530343    7.30655522149968    8.87724504977839
H         5.37923928286549    3.36558236600866    9.07304523220858
H         3.39201258442192    2.47789282594415    7.88676294821426
H        -1.93493369986105    4.68085477305621    7.36715607687235
H        -1.26094480705627    6.15275826116847    8.14393683814398
H        -0.57442650964895    4.55207010227801    8.50686597366709

