66
CSD_code = ZIHXET | q = 0 | S = 0 | Stoichiometry = C23H37N3Si2W | MND = 5
W         1.05015451688577    2.20180975653691    7.41895137104865
Si        1.25409041821635    0.48757116390488    5.05204799357370
Si        3.11967158659808    4.33141582575699    8.90680300888307
N         1.41069211396433    1.31804344613277    8.96505075748959
N         1.78723044862067    2.07868993743283    5.53882337427451
N         2.63824265878756    3.51459492240542    7.44704328636935
C         2.45662287015417    0.59428768612340    9.38198822574558
C         2.58186118635463    0.01726434248750   10.66046348096646
C         3.71211295428077   -0.69411020576382   11.00498297878612
C         4.75335752189648   -0.85869475656531   10.10452855247117
C         4.65659807007791   -0.29606103869570    8.83723112691489
C         3.53574603946994    0.41467997463627    8.47516990115721
C         2.96482791459196    2.73509024460018    5.24418406676590
C         3.67867537341062    2.64522914407519    4.05855528275193
C         4.85330036314003    3.36524243967600    3.90227019740755
C         5.31617569661482    4.16547723528588    4.93008479760025
C         4.61758887519513    4.25928411356405    6.12610187232283
C         3.43724036152398    3.55231948717515    6.30703417037871
C        -0.76514230632468    3.37891666730535    7.87687156742485
C        -1.11880076831543    4.36871211536466    6.74241244663996
C         0.03535627719730    5.36520313917256    6.55944548743311
C        -2.40266772134193    5.14342406986724    7.07445514602669
C        -1.32387566309812    3.60100481265062    5.42870670870402
C         0.03760727468423    0.45529185544145    6.52247229710834
C         2.63252452773235   -0.84684696157915    5.12099456499485
C         0.49906031876338    0.43769037199036    3.28840504919250
C         4.67422424618195    3.54538234203869    9.70685251264659
C         3.43438284870101    6.20919738759822    8.61827892747977
C         1.68820593741395    4.24172046485881   10.17555488543463
H         1.77344510516402    0.14603274585636   11.36604167169317
H         3.78603246280025   -1.12797093833622   11.99251785075732
H         5.63284602436751   -1.41799169670697   10.38469633085192
H         5.46801500331860   -0.41728229385957    8.13278717415062
H         3.43916976254741    0.88044492911694    7.48304730489758
H         3.30353276005540    2.01095398667964    3.26856297788298
H         5.40560314823391    3.29386187350726    2.97695814379462
H         6.23433269510562    4.72142353975679    4.81035665350128
H         5.00065662839179    4.87585012957962    6.92257378328816
H        -0.74040026126464    3.97125560177949    8.80983706073238
H        -1.64183500393582    2.70479961804851    7.99892552324572
H         0.21549375800102    5.91997224515607    7.47947510643940
H        -0.19748421215447    6.08109114918548    5.77228872347150
H         0.95646186444138    4.83714556674745    6.28220400321725
H        -2.28004643133668    5.71373480492779    7.99281646329495
H        -3.23881066055517    4.46002017799054    7.20689076439670
H        -2.65420478936509    5.83740101157960    6.27482811556347
H        -2.13868103438338    2.88432362175074    5.52439219461482
H        -0.40784473508987    3.06486590859864    5.15412866862002
H        -1.57484305005140    4.28822858356335    4.62176202142409
H        -0.99958240658068    0.56837897578197    6.18060457244769
H         0.08223956928097   -0.49436758240881    7.07185430772668
H         2.35219968547217   -1.72522171336957    4.54950790084528
H         2.83109640280703   -1.16249673847983    6.14207329047150
H         3.56135045625967   -0.46613862972344    4.70572665757000
H        -0.01904614442307   -0.50201945426580    3.13046720154676
H         1.26616560872231    0.51888817622007    2.52537390956103
H        -0.21426328949441    1.23946396493869    3.12394534557711
H         5.05452980446522    4.16716132887542   10.51142446829891
H         5.47517296156576    3.41068310597643    8.98602653115180
H         4.44501545556507    2.56780755748966   10.12190256961243
H         4.49315961004353    6.44114981474443    8.66102204574825
H         2.94797645145413    6.80602216566175    9.38305755843230
H         3.06776187953205    6.54492797852521    7.65284124290614
H         1.20190219439075    3.26508062795859   10.16808540513962
H         0.93772596928897    5.00957460671265   10.01220280182327
H         2.09119281629443    4.40121526742275   11.17022961694095

