54
CSD_code = ZIHYAQ | q = 0 | S = 0 | Stoichiometry = C21H31ClZr | MND = 12
Zr        8.25345457619669    2.42334479737279    8.76779249968503
Cl        6.62952717362982    3.59986229915932    9.99807243286852
C         7.42106773556801    1.20598024892743    5.85477280327857
C         7.01208449085660    2.16805254683445    6.96753617296832
C         5.98600251652359    2.97900557805420    6.71246687556188
C         7.43309123548304    0.34130207343708    9.93503833801677
C         8.35534602781280    0.95152375651215   10.81662318124785
C         9.64008411593185    0.89826654864637   10.22978079301863
C         9.52223217921545    0.26952077808089    8.97434638250648
C         8.16248408293560   -0.06798717682514    8.78617590779495
C         5.98833302718461   -0.02175668656984   10.21876558622530
C         5.51519268270530    0.58721173405754   11.54228123757378
C         5.88510068776728   -1.55332238673235   10.31030948331416
C         5.08022534137747    0.48337355705380    9.08902118556508
C         9.76464579750327    4.39839924054938    9.09634909778141
C        10.60152213936103    3.32735507192572    8.68852546695678
C        10.28540221287704    2.99138905597947    7.35549284442929
C         9.26157247539978    3.85934039386558    6.92211255134482
C         8.93372851381806    4.71783081407737    7.99472053313051
C         9.91008543710809    5.16225367332567   10.39954700183062
C         9.71559865182842    4.20912983467526   11.58967507792065
C         8.87946031325188    6.29112365140265   10.49672231442595
C        11.32026063327225    5.77167705975219   10.45786418188175
H         7.15435241872531    1.60648994122745    4.87146792989358
H         8.49711195756652    0.99966477936707    5.86317853714863
H         6.89271380390585    0.25482762598920    5.96574669854783
H         5.43958158646746    2.96207255240754    5.76820254505148
H         5.61770489837396    3.70355667268413    7.43268845001363
H         8.14719763695392    1.27791855092728   11.82727940918263
H        10.56900209322145    1.13325776312301   10.73410564526743
H        10.34188291877186   -0.02838834770611    8.33167649627326
H         7.78638424350993   -0.70072416771528    7.99381976051176
H         6.08789538920626    0.19016797515692   12.37736386584061
H         5.61605881146349    1.67024217514527   11.52197031543884
H         4.46757970858303    0.34435077967205   11.70622645726936
H         6.15345770874436   -2.01713791036807    9.36463078262977
H         6.55579575457490   -1.93151006784918   11.07846086808111
H         4.86879652741414   -1.84800338403951   10.56211907321482
H         5.11886098296740    1.57223503192519    9.03296564026722
H         5.38324969708427    0.07245414275689    8.12715645654825
H         4.05092346464339    0.18325936308142    9.27771064392376
H        11.45423521601105    2.94431788357880    9.23484750741717
H        10.83395218893803    2.29676782404688    6.73108776915620
H         8.88772527410079    3.94703673729008    5.91038785353377
H         8.23326124526077    5.54051179413931    7.93448546749668
H         8.71696052159547    3.76536685861614   11.55526647992300
H        10.46934623413145    3.42212569037959   11.58795809572128
H         9.81093564853531    4.75914784779942   12.52487709955360
H         9.02102831063545    7.01074465057133    9.69365825377070
H         7.86796466511966    5.89390256181398   10.44415389458824
H         8.99239420272082    6.81467435218498   11.44391400914250
H        12.08254451103193    4.99639639382891   10.45190434654925
H        11.48565525762595    6.41794348262644    9.59893987858452
H        11.43874507454767    6.36245398377835   11.36375782012213

