78
CSD_code = ZIHYOG | q = 0 | S = 0 | Stoichiometry = C43H29ClIrN3O | MND = 6
Ir        3.10456180245196    4.40460662504429    7.52684137004838
Cl        5.83491325818301    9.47926288953635   12.25109096216597
O         5.03524077556447    3.09721018457917    7.68331324129200
N         3.92273285562884    6.22749417710821    7.18056179421962
N         2.34876746516857    2.55838129736448    7.91454138912976
N         4.54657534609893    4.60768803231659    9.22094061754377
C         5.18191219718021    6.41077715119204    6.70741586549253
C         5.80629434002346    5.39427100833271    5.95799972918868
H         5.24706628379446    4.49857735146959    5.73195630624571
C         7.09944335519837    5.54051088621783    5.53384770220767
H         7.57173875144481    4.75269884082361    4.96581039691011
C         7.82129496555845    6.70682444594818    5.82444265204950
H         8.84482776135664    6.79697867535030    5.49227484604684
C         7.22442352194860    7.72931674499402    6.51046557069129
H         7.76075630687387    8.64321207952010    6.72114080481911
C         5.89442669658575    7.61436082597865    6.95503662823817
C         5.22681521912711    8.64844897038308    7.64677268648748
H         5.75271504288321    9.56683510982219    7.86180490114356
C         3.93026459265078    8.47047334425069    8.02693585734793
H         3.39851382539974    9.24997333644881    8.54678111740544
C         3.29080043726395    7.23543499988558    7.79348908181540
C         1.93426665639889    6.92350351860010    8.21003668616105
C         1.02986267828350    7.85364708945427    8.72312999866743
H         1.31624504891510    8.88774026694256    8.84390881419283
C        -0.24215059413189    7.45406829082077    9.07576749681517
H        -0.94461837871756    8.17268307822916    9.47162287626920
C        -0.61950967809452    6.12744232415459    8.91809075765193
H        -1.61865194932816    5.81908568850424    9.19112274957801
C         0.27447560723133    5.19758601222419    8.41469875657568
H        -0.04268084932220    4.17036991077687    8.29943073349382
C         1.56457319782968    5.56964440446858    8.04943082138360
C         2.37199569105121    1.94420828402155    9.12521482265258
C         2.47651904147987    2.70823093155018   10.30387132133514
H         2.49503536299690    3.78171817643573   10.21294042244515
C         2.54452255426056    2.10134672675625   11.52831044536785
H         2.62825489880345    2.70107783293448   12.42269422387662
C         2.49786084231258    0.70444468781173   11.63795102545586
H         2.56312550447326    0.24233898725920   12.61158586232190
C         2.34897466129990   -0.06342858334463   10.51577820885906
H         2.28294153067086   -1.13962903121019   10.58601000285023
C         2.26892480638041    0.53194165160552    9.24275238591619
C         2.08187420378675   -0.21683082146083    8.06130157089676
H         2.02142137240205   -1.29395974037052    8.12051006814975
C         1.96609801932489    0.43481377353564    6.86938015512733
H         1.80270979396887   -0.11534724795131    5.95714211771524
C         2.10405841869552    1.83754285084479    6.81330406125832
C         1.99480101838133    2.61701348187927    5.59053674284901
C         1.59473212756641    2.10369546922506    4.35629539060017
H         1.36529772574504    1.05431446241976    4.24338326921257
C         1.48490346334682    2.94178188165804    3.26621654313115
H         1.17319745179964    2.54702709001237    2.31026556773696
C         1.77285318638093    4.29272990809389    3.39990882256460
H         1.68050217179524    4.94701891818513    2.54460797470452
C         2.17805862258195    4.80656863697376    4.62029033980704
H         2.39591319960904    5.86254198335222    4.70065639927762
C         2.29574775189441    3.98854012442280    5.73915919652256
C         5.35792311715898    3.67618838411221    8.74849921753717
C         6.57980412287562    3.25069456902283    9.47595959504569
C         7.70667014733786    2.88204488826878    8.74979232072848
H         7.67034183900789    2.92712796668210    7.67076855334961
C         8.85205144314641    2.47438035155097    9.40778213874238
H         9.72996476499234    2.19811802558421    8.84172955926732
C         8.87234744810535    2.41737070126408   10.79171392243853
H         9.76739666759646    2.09857807946222   11.30588145044220
C         7.74368922370034    2.76354040181869   11.51746128943749
H         7.75723725784779    2.70809893717595   12.59625537967366
C         6.59901960710530    3.18100337006210   10.86476318815538
H         5.71437655204878    3.44651338767519   11.42643535756984
C         4.90692066320833    5.65753946972985   10.02226973638866
C         6.18724665256131    6.23025243242968    9.97357601357968
H         6.95207507188988    5.77250145340053    9.36216944952453
C         6.47326937390064    7.38862115840180   10.66288756521337
H         7.45952481192468    7.82353763936696   10.60726890089009
C         5.48352366535237    8.00310912739637   11.41253403074549
C         4.21107855807800    7.46021343889987   11.48053162950194
H         3.44449180040533    7.94851252032661   12.06226681133831
C         3.92729804602365    6.30129677998049   10.79034911942450
H         2.92772920527716    5.89464892199937   10.82323461907728

