56
CSD_code = ZIHZOH | q = 1 | S = 0 | Stoichiometry = C21H30BrClIrN2(1+) | MND = 8
Ir        3.23068752294592    2.24104029265984   13.37744259407876
Br        1.12170631353834   -0.35002516907442   12.00470144940618
Cl        4.12353423109024    1.62453633252587   11.28671517652623
N         1.43659977446512    2.39465109386919   12.14850349910129
N         2.08298052260621    4.57600137901619   12.26568297315346
H         1.96801992155245    5.55163230770140   11.99951405854565
C         4.27092260114406    2.28711865878279   15.34416388347418
C         4.85282534322045    1.27442749425944   14.50723782805197
C         3.88315552459537    0.19868310653722   14.35925718887684
C         2.71993920822217    0.56883183907347   15.03700087807830
C         2.90696881593418    1.91080015878107   15.56539300615120
C         5.01508639186246    3.34714139574814   16.08625370504422
H         5.39287656466591    2.91172172167352   17.01304746768519
H         4.37173692965517    4.18167721303159   16.35279915410305
H         5.86954455288346    3.71071544375903   15.52238552370866
C         6.29013282041553    1.13315036998905   14.15009022363044
H         6.82326951560868    2.07448866980250   14.23816630669549
H         6.40374829269294    0.75781686972576   13.13539479591875
H         6.75133561187160    0.41006474786010   14.82479300285214
C         4.20932682085513   -1.10825584644869   13.72411374623122
H         3.34256813903299   -1.76129480865630   13.68402300907288
H         4.99710352117857   -1.60498391984492   14.29076365315766
H         4.57420157705659   -0.96046924748855   12.70858033176868
C         1.52790880421464   -0.26235590944789   15.35368609534322
H         1.56123687408882   -1.22282880281197   14.84921657078373
H         0.59997813480574    0.23991786942061   15.08512841526271
H         1.50378477675725   -0.43799855125924   16.43026700557096
C         1.96498598421620    2.56366724050170   16.52141780093347
H         2.11514306736862    2.14537908320872   17.51808228447440
H         0.93015037373471    2.38618881342542   16.23898482161944
H         2.13290260218775    3.63611075200003   16.57704261059590
C         0.71111292664350    1.42756109127141   11.58150025032542
C        -0.30994126741339    1.67626353654621   10.67927775557242
H        -0.87104316678455    0.85377591082012   10.26682889328287
C        -0.57932941766739    2.98836369520853   10.31786043967394
H        -1.36955277885637    3.20834719632088    9.61843812517781
C         0.20060340464746    4.00039994722621   10.84480621580791
H         0.05557362241516    5.02926485263963   10.55952633995880
C         1.20594779225858    3.65767610898826   11.74362978367932
C         3.15107092623710    4.17694142851203   12.97346705718260
C         4.07381766996907    5.28910534246373   13.30685858816937
H         4.57493684084836    5.10605938569996   14.25329613426998
H         3.50415125840172    6.22023594948392   13.38986788118641
C         5.19747548232209    5.52276178052417   12.23859240781842
C         6.26104885402291    4.43791875875967   12.36901158288840
H         5.81751655230512    3.45393195372955   12.25238937261272
H         6.75613126836500    4.49902034447661   13.33485540025916
H         7.01516191456132    4.56527865341114   11.59734271807853
C         5.81945354114516    6.88989267679811   12.52650886376933
H         6.65727282573631    7.06062068860263   11.85601163957005
H         6.18804507432939    6.94428153141590   13.54787458887489
H         5.10025978506018    7.69185819218346   12.37645717882266
C         4.62084320629682    5.50742813682600   10.82441772196118
H         5.40424806567853    5.75619427226130   10.11356518861223
H         3.82754280049694    6.24363494254299   10.70705352423586
H         4.24189168451792    4.52023302495497   10.57061328829394

