70
CSD_code = ZIJHEF | q = 1 | S = 0 | Stoichiometry = C29H38N2Nb(1+) | MND = 12
Nb        3.43178541425261    0.29833136278145    3.53391854758082
N         3.47406483535278   -1.19133663712053    2.02877091027032
N         5.00361155956151   -0.54536010972522    3.92270660252841
C         4.03841117659985    2.66977882034982    3.51266802206651
C         2.65565026611071    2.70733326351104    3.21978822805547
C         2.44527461271853    2.04817601032167    2.00621725956971
C         3.71012310661317    1.66358044646535    1.49099804165352
C         4.71715516697656    2.07470652087184    2.40233289781105
C         6.20174988385279    2.14303267828720    2.11810113568868
C         6.62687113104263    0.98177166664251    1.21075783938887
C         6.47363514856600    3.47738010743057    1.40310063723733
C         7.00565460484650    2.09184556685259    3.42203880861633
C         2.61701405825741   -0.31447874704040    5.79388836312687
C         1.84350188411671    0.80649816607250    5.37105078996621
C         1.03656551647385    0.41732898905559    4.29122471956287
C         1.32149686153978   -0.92920515909752    3.99598941274562
C         2.27509440240593   -1.39409303818407    4.93792352940599
C         3.44816045094190   -0.36290678825314    7.05565289049280
C         2.49945545789133   -0.27233422979714    8.26193744344247
C         4.42492300690424    0.82265988309784    7.07872812357817
C         4.23895060402006   -1.67216142089926    7.13174021159533
C         4.31190094335422   -2.21263249808129    1.86268649746764
C         4.04843645325520   -3.18320259502542    0.74742462110969
C         5.44630863195808   -2.42079553487150    2.65265824428244
C         5.80331029524100   -1.53116776711464    3.69797152704753
C         7.07532564853700   -1.74560806760797    4.46529467851077
C         6.33682083370883   -3.57997147887213    2.37734223595520
C         6.12899662580389   -4.78970228384443    3.03043315024697
C         6.95866542819521   -5.86844309640349    2.78013132669719
C         8.00398728060350   -5.74592808842293    1.88013351676847
C         8.21846881621579   -4.54200953343431    1.23030067430294
C         7.38988043795193   -3.46166428179204    1.47781182825632
H         2.73087590902583   -1.20400237462510    1.32382685413141
H         4.51488591865545    3.22943683438689    4.30848708595981
H         1.90733768926143    3.23143139128618    3.79738198218131
H         1.50862576625825    1.98256747582278    1.46840311059887
H         3.88273600166793    1.29232014509117    0.48892541863335
H         6.31187184326512    0.02931403208826    1.63943139169503
H         7.70832134327536    0.97964508083650    1.10050896093809
H         6.19433057360422    1.08357406326721    0.21854245615756
H         6.18504705766185    4.31590749129100    2.03203815947227
H         5.91223214829396    3.53798163253889    0.47396502534826
H         7.53204116935481    3.56604951579426    1.17409777201944
H         6.73503693142579    1.20604512654322    3.99659416590938
H         6.82715393354886    2.97697863864335    4.02702043337706
H         8.06844800080245    2.05412202515158    3.19820499415297
H         1.75634783194661    1.73863805379337    5.91313761018541
H         0.25128226389325    1.00748539361124    3.83985932791905
H         0.77146051822381   -1.55680087542505    3.30522468339518
H         2.57740255917358   -2.42641476429068    5.05516565045423
H         1.95946208565329    0.67101738002851    8.26702979216406
H         3.06750584071987   -0.34729193975763    9.18524402931508
H         1.77398383156396   -1.08190660561718    8.23682535187418
H         3.89128224165065    1.77153040678614    7.08838916671087
H         5.08239169268132    0.78950065901966    6.20407382281078
H         5.03657470457196    0.77859223089143    7.97663823974813
H         4.83059143717480   -1.81249563501241    6.22864777344291
H         3.56928579266872   -2.51994826060646    7.25231238601990
H         4.90695938829680   -1.65030120325820    7.98873470655135
H         3.10046764779437   -2.98060612461520    0.25352606377109
H         4.03924601892514   -4.20171650290649    1.12989847162316
H         4.84771500605282   -3.12664886920877    0.01005808119250
H         7.15185940294046   -1.03114136557495    5.28083296788435
H         7.92814841859496   -1.62386254004812    3.79983817445659
H         7.11214388943551   -2.75896392146226    4.85881757975447
H         5.31344248233453   -4.88073866681171    3.73363919338607
H         6.78963028484291   -6.80493958082411    3.28924268636056
H         8.65110379166353   -6.58713461797710    1.68670338101728
H         9.03329479546633   -4.44367055882040    0.52951828152083
H         7.55562324376111   -2.52077529618796    0.97299205283660

