63
CSD_code = ZIJJOR | q = 0 | S = 0 | Stoichiometry = C18H33B9P2Pt | MND = 7
Pt        4.98827040454653    1.57017546470103   10.29667398492778
P         7.12305215147568    2.43323654801167    9.83432569147757
P         4.08896373841888    3.55431579986934   11.32357831465448
C         8.49701728083953    1.27771752191475    9.42831363599806
C         7.41739104483819    3.70160083896805    8.52555788731093
C         5.04534166074770    5.08476253184525   11.73623060269415
C         3.10520626764142    3.42032179996490   12.87146069207612
C         7.81881749167080    3.19239833172165   11.34256877648124
C         8.63867516187002    4.31177171623966   11.38470133132546
C         9.08884316539246    4.79888094955842   12.60052465927433
C         8.73043191948897    4.17102233624983   13.78121147938541
C         7.91379466023619    3.05101343998827   13.74716901339074
C         7.45707657933357    2.57025637291792   12.53507394705023
C         2.92343072535778    4.28396271523522   10.12300731260909
C         3.36953710371602    4.32402537344305    8.80465928807260
C         2.57052053710579    4.83744424856235    7.80222121626618
C         1.30225393059703    5.30730528822501    8.10589480758118
C         0.84554562956463    5.25943232560959    9.41152829818765
C         1.65059150808923    4.75227149439817   10.41786705611632
C         3.30525869035776    0.75835305614646    8.40955903760570
B         2.94934987390934    0.71577251702933   10.02688429391570
B         2.19190323647921   -0.41088247102494    8.76038201577629
B         3.50280996502215   -0.75767597298403    7.66397075440852
B         4.84636822525692    0.22541652794566    8.35792371057887
B         4.02446056224198   -0.31867595626330   11.08640433011851
C         2.69120467459235   -0.97421213547074   10.28573913866162
B         3.06011347604018   -1.92940565900046    8.87945009228203
B         4.81316094395387   -1.51737611549594    8.62269778298399
B         5.37090858793033   -0.61611812312191   10.04816961539116
B         4.13591159678947   -1.86675169685932   10.24376148389710
H         2.97909223478460    1.60048099787814    7.80739227955900
H         2.11405347930280    1.43883709891873   10.46704133734648
H         1.04741896085716   -0.27054912674111    8.52979486549930
H         3.36512949079646   -0.82866232979951    6.49768609291977
H         5.62292006817618    0.76170202093264    7.63904701202302
H         3.89772701693583   -0.29971413209197   12.26673934241671
H         1.88034051026783   -1.30334143992419   10.92554694697760
H         2.48256298771161   -2.93842030626599    8.69109030969632
H         5.55821477982052   -2.26587877625487    8.09518723896747
H         6.49849381832392   -0.81663339214991   10.35502189356065
H         4.26095697592596   -2.83712056299224   10.90073028317015
H         9.43901063788551    1.81527823858893    9.32639998948478
H         8.58278713082022    0.54125279850332   10.22290364305539
H         8.25961045550721    0.75931779706956    8.50216841131166
H         8.47725992462050    3.91569550492315    8.40126902111559
H         7.02952345182689    3.30446267793494    7.58886163639514
H         6.88135073889179    4.61902995854226    8.76017840036064
H         4.36538117564673    5.89636641292590   11.99185891915519
H         5.70698335017033    4.88277746283437   12.57563201314477
H         5.65131924838170    5.38126023900164   10.88339422283345
H         2.70498650435787    4.38211873712871   13.18820863387619
H         2.29899460329335    2.70565952846438   12.72467817920979
H         3.76476619729875    3.03672930916564   13.64824707526559
H         8.92750674472799    4.81493109697164   10.47392768276790
H         9.72321499109551    5.67340549036224   12.62641142957455
H         9.08464588746114    4.55578159733306   14.72636618818126
H         7.63118263388792    2.56017169721325   14.66705067394701
H         6.80034127672809    1.70709213211899   12.48884941026012
H         4.35126482063374    3.92513310865051    8.57717055768397
H         2.92672116311998    4.86247659523661    6.78235215346493
H         0.66824773562749    5.70075867015466    7.32497502569321
H        -0.14670424173825    5.61607250564871    9.64844758386459
H         1.27358445332096    4.71606932141788   11.42876129682027

