67
CSD_code = ZIJJEJ | q = 0 | S = 0 | Stoichiometry = C28H33N5Ru | MND = 8
Ru        5.15732805406969    2.61647230648720   17.97888194958031
N         2.33466642780883    2.04300357354067   16.94414644025372
N         4.33624121052612    5.50317008138737   18.59786108802525
N         4.56924555057918    2.08822063498587   19.91506863884412
N         3.68900489561519    2.54711241920351   20.53390391369310
N         2.86160324202159    2.91662720895620   21.22270410311654
C         3.41472767927042    2.26452365821383   17.35987721816124
C         1.03685048227651    1.75622177966799   16.67240589890024
C         0.57007995437018    1.90975146511888   15.36102531058872
C        -0.75911435754011    1.62124542660314   15.10069702916720
H        -1.13891348536319    1.73491626645857   14.09590823041983
C        -1.60009471548076    1.19239601595284   16.11384135190407
H        -2.63438762863413    0.97236654534506   15.89583513770894
C        -1.12067471555931    1.04171834515859   17.40399085539506
H        -1.78221007067203    0.70306194698116   18.18759673976615
C         0.20235969677106    1.31733358143823   17.71072859421211
C         0.74708323566161    1.15864237105716   19.09255439995253
H         1.66887066907922    0.57704265670331   19.07774600466231
H         0.02643554665902    0.66481061920655   19.73815211785239
H         0.99171983531911    2.12890535015153   19.52562167752685
C         1.51018604467716    2.36970024911482   14.28983630190334
H         2.00365180733162    3.29436567586260   14.58839717466623
H         0.98023052029759    2.53524103574053   13.35570052458933
H         2.28638407111944    1.62203216543265   14.12389942623358
C         4.63913957315522    4.39651342051163   18.33118442724670
C         3.68979589616781    6.63433328471315   18.97232072168436
C         2.33015248537936    6.55493766449175   19.31153996101130
C         1.69275486891245    7.72428883759264   19.69447996251736
H         0.64733604969465    7.68802229948298   19.96300898317608
C         2.37501020959646    8.92815576434356   19.73994737251611
H         1.85892809212059    9.82713548876579   20.04188509428382
C         3.71649641800790    8.98554240580861   19.40050619651492
H         4.24333939451893    9.92780355356370   19.43901354370589
C         4.39493698956041    7.84307076916324   19.01176359139652
C         5.84543922354944    7.86432439327764   18.63832518214466
H         6.40640738611370    7.16863381685269   19.26222337238363
H         6.26164016221054    8.86080099395316   18.75963193317092
H         5.97288659035444    7.55463350974937   17.60057434624008
C         1.62177118979808    5.24054976223155   19.27276787541040
H         1.94890555771667    4.61402778899360   20.10825248324929
H         1.85414333601452    4.69912024667161   18.35404596264836
H         0.54649415699621    5.37865230630297   19.34607260395812
C         6.42414753697014    0.83109821628680   17.61115241214590
C         6.22224865117872    1.48923792247746   16.35933946362781
C         6.77307734293815    2.80746186535907   16.45217857248813
C         7.37516909302028    2.93844549946242   17.75790080495374
C         7.17661946717281    1.72120069940039   18.45381768794939
C         7.78447559469123    1.32596726009422   19.76473098515436
H         8.20240864036111    2.18646386117318   20.28217478180206
H         8.58501808754760    0.60319085383951   19.59137332525224
H         7.04337161279501    0.86334051290745   20.41522479422221
C         6.24464742065992   -0.63576722410982   17.87774985145138
H         5.42953942516722   -1.04907433662962   17.28632459845822
H         6.02792491545863   -0.81473038035595   18.92914439407657
H         7.16083231953324   -1.17481385258735   17.62154885875588
C         5.71785168728685    0.84558997129559   15.10073349912131
H         5.24475676377815    1.57429554764327   14.44448270414706
H         4.99612641440253    0.06033169548761   15.31885251868208
H         6.55663280482972    0.39731726643585   14.56256394742411
C         7.00865881065637    3.73575003903655   15.29634445475675
H         7.95144043543541    3.47970705307379   14.80597530963448
H         7.06943286386800    4.77126515706796   15.62591155061393
H         6.21133601192923    3.66005708025259   14.55928714376177
C         8.28959054253933    4.05685082318912   18.17052373485640
H         8.30587277345502    4.17706904108944   19.25224347481813
H         7.98059531765308    5.00302802945104   17.72935982327523
H         9.30727393665504    3.84168971353038   17.83473756837498

