41
CSD_code = ZIJKAE | q = 0 | S = 0 | Stoichiometry = C13H19BN6OPd | MND = 6
Pd        7.41943834421027    6.87091681653906    7.21323396911278
C         6.21455209448162    7.16366293026631    8.85273598748612
C         4.86794301588757    7.73813068445883    8.42078012781950
C         5.14684461510662    8.67911604889285    7.25190696861366
C         5.94023713632559    7.88649689196374    6.22069284891739
B         9.07459142795172    4.22885148206306    6.33549616596213
N         9.33145281912461    5.34455616401913    5.31027703180124
N         8.77543290758149    6.55406909718246    5.43086524854195
C         9.20840710968541    7.30015010253795    4.42537810677806
C        10.07392991060867    6.55574756970048    3.62314016690213
C        10.12129222926994    5.31654896298841    4.22633793349224
N         9.58867899469807    4.70789369234234    7.70227885040697
N         9.06202176420139    5.77277254698141    8.31464799986538
C         9.71800633816228    5.95167986671788    9.45130447160870
C        10.70412249076895    4.97354239517343    9.58622674627933
C        10.58347338760258    4.20407228316530    8.44810993477696
N         7.55232817757290    4.01165862967036    6.44691483885940
N         6.68285972549372    4.96623965508873    6.79239112966335
C         5.47235274911894    4.42464759015951    6.80238732167610
C         5.55246163686767    3.07850699768183    6.45252983111963
C         6.89655515433244    2.86175682736119    6.23578331318930
O         8.23736488146814    8.63911729551717    7.59695087883581
H         6.10059756436157    6.22951275799652    9.42047435439827
H         6.74792426729323    7.90233277259135    9.46144295599349
H         4.18950817042889    6.94298474887750    8.09779226714588
H         4.38995736325052    8.26477965959905    9.25320741726215
H         4.22321030392678    9.07726360426706    6.81700692814754
H         5.75888498339271    9.51132697335098    7.60445274686949
H         5.29628264696638    7.15160981122919    5.71632688764377
H         6.38553411303021    8.55272024153849    5.47345012834905
H         9.61269758953577    3.22667425800798    6.00994327992899
H         8.89244461264419    8.32152333414034    4.32148313335860
H        10.58555614325503    6.87516624228166    2.73888678083402
H        10.66090333819611    4.43194498992038    3.95521565082963
H         9.46172274511238    6.75932659764288   10.11148608044005
H        11.39806470481246    4.84880528408425   10.39159824667908
H        11.13614584265144    3.34390486060663    8.12880325530193
H         4.60311070571646    5.00137427599644    7.05406959788800
H         4.75116421268076    2.37382176807911    6.37157300068058
H         7.41737582998019    1.97143736146527    5.94834720175524
H         9.17626795224393    8.50685592785421    7.42267021478604

