42
CSD_code = ZIJKEI | q = 1 | S = 0 | Stoichiometry = C13H20BN6OPd(1+) | MND = 6
Pd        0.06817544778665    9.91571755704796    6.92306184156605
C         0.88629527835596   11.38273072134923    5.71021035852346
C         2.22989187506470   10.91369431112077    5.17121803725316
C         2.86304088765311   10.01013568731114    6.23049376201002
C         1.85095050375917    8.92664232536502    6.57328626768778
B        -2.88290004510843    8.78637768740952    6.98588972505290
N        -2.07765395345255    8.07752684865133    8.08408996627203
N        -0.78710691362435    8.36236027299101    8.31052396266508
C        -0.37633912688273    7.58801128279644    9.31135253677664
C        -1.42585777488096    6.78569498206841    9.74989351778223
C        -2.48784394628566    7.13098238492486    8.93882021992830
N        -2.93617956261499   10.28772995980710    7.30380380407826
N        -1.82452785580904   11.03617591887971    7.33192783934268
C        -2.18551137899643   12.28330465671822    7.62064776731482
C        -3.56616735071323   12.34570403002231    7.79014843357841
C        -4.00135902977946   11.05302552767332    7.57731174427507
N        -2.10502556400810    8.62654921991255    5.65404042566587
N        -0.85373248009922    9.04739811910378    5.44142794234598
C        -0.52320895915040    8.76976256266351    4.18304558471157
C        -1.59495769009660    8.14406021798077    3.55845231350734
C        -2.57481468379877    8.07541687040110    4.52953776092521
O         0.95783571204124   10.90572673715949    8.75218675402539
H         0.20649439138116   11.70540921900705    4.91429665270413
H         1.03242047950066   12.20135917215950    6.42750551348711
H         2.10759451270391   10.35772681015528    4.23958025241922
H         2.87002215116822   11.77377266167882    4.95786045895620
H         3.79119101257831    9.56115890263170    5.86502790509809
H         3.10590236762517   10.60503097675499    7.11597223857219
H         1.74623256257753    8.21770201869058    5.74503443525934
H         2.13625003610870    8.37527155996839    7.47794277307329
H         0.63568262838927    7.62527288922843    9.67160312461198
H        -1.40948807637224    6.06237103329290   10.53722707265011
H        -3.49273075318532    6.76324197572837    8.92275820627645
H        -1.45915510261358   13.07279900754259    7.68576205553750
H        -4.15615783181958   13.20512474223838    8.02837231105289
H        -4.98959357879507   10.64317161033901    7.60496782032601
H         0.43693201071358    9.01810080665205    3.77367580500545
H        -1.64628747747119    7.79523272955806    2.54889726801086
H        -3.56449556748079    7.67062532628948    4.48027439287465
H        -3.96389930938750    8.33119549162944    6.88982381423682
H         1.45162213339429   10.34570968714406    9.36365399318833
H         0.30296002162491   11.38729549795341    9.27359334137306

