29
CSD_code = ZIJTIV | q = 0 | S = 0 | Stoichiometry = C7H14ClNO4PtS | MND = 4
Pt        0.14577171806709    0.97600785721086   16.40262344640412
Cl        0.33378313445018    1.74389023325442   14.31323118341250
S        -0.18470457992282   -1.01575441216583   15.46780076218078
N         0.03093242432274    0.35589485590725   18.38052938258329
O         0.46594970299118    2.76453501677492   17.30074871208498
O         0.57212543801507    3.73361391513557   19.28812718200768
O         0.54019163744243   -1.14145135830293   20.90875378103810
O        -0.43582402287434   -2.05771008195756   16.45532023243726
C         1.32046973697554   -0.03805113966330   18.96071276499832
C         1.10329822948699    0.07944019829511   20.47756582904028
C         0.12231630694715    1.26088572019506   20.61289837842628
C        -0.37960072473951    1.52129433261803   19.18658031928972
C         0.28562351065229    2.80480297162351   18.57045481844996
C        -1.52007115400010   -1.06722731102425   14.24113584458009
C         1.19099538227496   -1.55229276972786   14.41396245771810
H        -0.61090878507632   -0.42410754058976   18.53584977915125
H         1.57810322211629   -1.05728068579149   18.67511117937165
H         2.09636262450975    0.66148132543381   18.63872858274134
H         2.04815942978414    0.26579478774628   21.00260339219758
H         0.40149775508761   -1.11396223090580   21.86076436120789
H        -0.69302836750439    1.00096158746638   21.28802960774210
H         0.61175894091190    2.16198231283004   20.98501854363569
H        -1.46278801105622    1.66405686088169   19.13236195142920
H        -1.30082302325088   -0.30543598655486   13.50172370072928
H        -2.45273258350503   -0.84570387931366   14.74891406349280
H        -1.55865315018607   -2.05920062502270   13.80637545532710
H         1.32710946299026   -0.78766566192821   13.65763496820005
H         0.94805611426295   -2.51490362154884   13.97947865437488
H         2.07802963083142   -1.63549467087683   15.03306066574640

