45
CSD_code = ZIJZIB | q = 0 | S = 0 | Stoichiometry = C16H21MoN2O4P | MND = 6
Mo        1.88581564634526    1.71424540969529    2.20831574818629
P         3.62256842944492    0.61237829166920    1.00517504025798
C         2.19266716603252    0.65049863294314    3.79248035533180
O         2.35267861610141    0.02447861029295    4.73742249191744
C         0.59152759282790    0.38099676627649    1.59878346013131
O        -0.14201223535929   -0.44108555205708    1.29820817621862
C         0.48404134996712    2.63888138305127    3.19063290916910
O        -0.32128339750912    3.14411897409670    3.82594861251203
C         3.21289602920115    3.00961681087195    2.82596084804384
O         4.00484032197497    3.72783785491220    3.23094285853313
C         2.58580149826862    3.41263881927365   -0.55818950785940
H         3.31896667249331    3.96209899231662    0.04246701677968
H         2.20818723828178    4.09246526786484   -1.33914842205246
C         3.26105016603691    2.22076827342948   -1.23971700719025
H         2.49388740653248    1.47926630515223   -1.48991269103853
H         3.70530255142733    2.56824112072777   -2.17672894179564
C         4.35015013369418    1.56469096456944   -0.38996436355094
H         4.99090800806408    2.33480297887011    0.05424339478395
H         4.97890135346553    0.91712936114068   -1.00823921092146
N         1.49261300354752    3.00321245460959    0.32096985987670
H         1.06038265127700    3.84063033870678    0.70851983249258
H         0.77867761746999    2.53820600536117   -0.24112490536093
C         5.12565222938995    0.19576782676804    1.98329265752053
H         5.49890953035059    1.13730656635798    2.40185267598870
H         4.77460075280868   -0.41314513154216    2.82505209231049
C         6.22996392648285   -0.54204713324243    1.23278909584563
H         6.68312867705142    0.11465199748403    0.48499964949912
H         5.80573986755482   -1.40681826213906    0.71173257686012
C         7.32813004715315   -1.02610107799436    2.19480752131476
H         7.75403191206987   -0.16770021062753    2.72238165312487
H         6.88830926964278   -1.69512899926623    2.93964987046320
N         8.42027775877037   -1.73647789015883    1.55983646501709
H         8.07448810804899   -2.56104391861462    1.07964223847069
H         8.87662436624710   -1.14582087792254    0.87203755194189
C         3.22554439604569   -1.01298652303262    0.29456662572472
C         3.30478274571073   -1.36121655365339   -1.04832979244198
H         3.65751806470290   -0.65391852935729   -1.78518473998008
C         2.92561544643738   -2.62827199846956   -1.46062599362116
H         2.98759213305120   -2.88949857912641   -2.50746348465205
C         2.46731977580128   -3.55564533706108   -0.54178783470504
H         2.17155401878573   -4.54097197527686   -0.87000741632078
C         2.38021160524746   -3.21377806426981    0.79919747840521
H         2.01547815744728   -3.93163138560094    1.51877441308093
C         2.74971379767969   -1.94912756006335    1.21174749064709
H         2.66354559398398   -1.66641444699529    2.25509365103745

