38
CSD_code = ZIKCOL | q = 0 | S = 0 | Stoichiometry = C16H14CrN2O5 | MND = 6
Cr       10.87600035969163    2.16738738297743    0.40271312844717
C        11.62154214268244    1.77911843117076   -1.25616458901101
O        12.07530901739858    1.55264877337822   -2.29124932614829
C        11.10874964379197    3.94817318145793   -0.10240083094056
O        11.29492617253134    4.97972418003137   -0.58330501477981
C        10.72396813965154    0.32091486954790    0.63689143762811
O        10.68441840742469   -0.83046632811292    0.63214820581470
C        12.53451667887181    2.15535594726174    1.25722650260972
O        13.54189331681468    2.14062416418711    1.81276612367295
C         9.15819164827207    2.21944572964821   -0.31263657404045
O         8.09184543433962    2.26434985109422   -0.74831808960763
C        10.04074038419441    2.60378575159767    2.25227559112437
N         9.45578374236248    3.76577787238858    2.53687494446490
H         9.36939467460768    4.48186577187093    1.83306323868184
H         9.00911438226708    3.94073404933950    3.43191468882713
C        10.01235825259281    1.63356398939125    3.30154163250460
H        10.86765298050667    0.97239617524159    3.33354498300670
C         8.99744924965793    1.40509563388802    4.19369096809072
N         9.12846817304334    0.56027644539736    5.25713475934985
C         8.02628990195770   -0.24587968412333    5.72906769347915
H         7.98828392506013   -0.22031845753054    6.82052951371503
H         8.15040684577164   -1.28708175070176    5.41221269295848
H         7.08402477576517    0.12514998061487    5.33546355173453
C        10.42674586258080    0.04607388929363    5.61662296987913
H        10.74525859198609   -0.77510461068907    4.96418009694498
H        10.38018512619040   -0.32570383107763    6.63996773053713
H        11.16651377129778    0.84352034466876    5.56794998302903
C         7.67001298670606    2.03095556265897    4.01214513418723
C         7.02805499161064    1.94624394939259    2.77824956229210
H         7.50937679281533    1.41450176217044    1.96985590455565
C         5.79099137292242    2.53433275913602    2.59368848341716
H         5.30340994511206    2.46229157688929    1.63352939103355
C         5.17824092781350    3.20976636965777    3.63719854141078
H         4.21180562209896    3.66832429387291    3.49216822899130
C         5.80642815399542    3.29245188836541    4.86926316455569
H         5.33106098106762    3.81655903146133    5.68516698855424
C         7.04332747722441    2.70382344805263    5.05965478346310
H         7.53745914840620    2.77112160567886    6.01847380521292

