74
CSD_code = ZIKDUS | q = 0 | S = 0 | Stoichiometry = C24H40CoN5O4 | MND = 6
Co        8.34522543237953    4.89474843759652    4.72105012221800
N         7.40681583752915    6.52464750487323    4.74914104884948
C         7.10538055415322    6.96197520273144    5.92689521138223
C         7.56296181550055    6.11403102118049    6.99427274685440
N         8.20929563518947    5.06056501507698    6.58582354053770
N         9.27311192787067    3.26033359428387    4.67869509490255
C         9.49949151584097    2.78237858377294    3.50003315322482
C         9.00030330347233    3.60856199512677    2.43598833455296
N         8.41618326952423    4.69526801309999    2.85061739769509
O         7.00885693898420    7.22785605946719    3.65809871157822
H         7.33216165228079    6.63737745498255    2.85614811596559
O         8.64498219899405    4.16951098248611    7.41403615007913
H         9.32395359745320    3.11155398590788    6.56800944169540
O         9.64242843410500    2.53173130060019    5.76590204807435
O         7.84675216628660    5.50961991643945    2.02327328361518
C         6.34611709999788    8.22262765377001    6.17941350487732
H         6.08625651769291    8.68694236571023    5.23186647808245
H         6.95230164036581    8.91358822038206    6.76303048008182
H         5.43757241595376    8.01184937762881    6.74110601287282
C         7.30452086554394    6.40986287558442    8.43785405466854
H         7.77109369088653    5.63116420987015    9.03745803238395
H         6.23542745775385    6.42783992429190    8.64674231850614
H         7.72483176978196    7.37535104362477    8.71511831846776
C        10.18543932477392    1.48062788841841    3.24626206361420
H        10.48586909680754    1.03685103028763    4.19163190115569
H        11.06531704909853    1.63623785981075    2.62443851208350
H         9.51834352831388    0.79698244812620    2.72334538361848
C         9.11457553232506    3.23639188945043    0.99151307429968
H         8.67720209958920    4.03418272050294    0.39508156391316
H         8.58554554575837    2.30640478325167    0.78577330923451
H        10.15782456723280    3.10779402785916    0.70717330804916
N         6.50455825337870    3.83068021076823    4.70560855827720
C         6.26008362117274    2.86320563453280    5.58699469502929
H         7.02043329309429    2.67051079636671    6.33103318287905
C         5.09595072986753    2.12135911017988    5.58754721054934
H         4.97636930438021    1.35283821692330    6.33427527802291
C         4.10400309858118    2.36601022372634    4.63893978864665
C         4.37036609892518    3.38561751912753    3.73142661415167
H         3.66699998899311    3.65519528964579    2.96213038341249
C         5.56474697033865    4.08080892021485    3.79962508504507
H         5.76753464678328    4.86452816190924    3.08274865749054
C         2.83036579732954    1.54420883919169    4.63011397980114
C         2.11849661339325    1.71892195418269    5.97900885117805
H         1.19494625331275    1.14487232937099    5.98721263555325
H         1.87425896912932    2.76625131003245    6.14469000839552
H         2.73821483434515    1.37745845942907    6.80344681960933
C         1.87048243660087    1.96643552803621    3.51537558689596
H         2.32579195253317    1.83812284401187    2.53607229249663
H         1.56353783380335    3.00308777115612    3.63372115537829
H         0.97764627260094    1.34635789307990    3.55330197078240
C         3.20036091755361    0.06854815535225    4.42240232374350
H         3.72967030425205   -0.05921918942013    3.48030377127989
H         2.29909566316795   -0.53933813098017    4.39580616336074
H         3.83508499848075   -0.29905388043882    5.22391778317579
C        10.07549749525982    5.97465434684601    4.82689467701815
H         9.80376866276041    6.84909725485154    5.43279456256926
C        10.54850732112197    6.48857806890571    3.47356249035233
H         9.75185411260038    6.98427920965709    2.92502349735547
H        10.95107930912608    5.68560837272444    2.85921466622082
H        11.33919234272103    7.22597983816705    3.62269964588074
C        11.20162128823968    5.25185605978061    5.56255426834844
H        11.63657346844668    4.47751394017091    4.92771220518442
H        10.82023538859411    4.77497036774330    6.46582594358328
C        12.31595623337926    6.20827710692640    6.00619988902378
H        12.83206621681058    6.61928981432805    5.13735797315022
H        11.87961122034971    7.04051317482930    6.56342836617707
C        13.33883038638422    5.49013827836278    6.89140800046388
H        12.82487801982368    5.09194062294177    7.77091852953928
H        13.77310143985330    4.65173076034574    6.34377651123159
C        14.41778613341848    6.42427168118303    7.33349261051989
H        14.08052288980075    7.27759003461827    7.90920964155857
C        15.69963606483869    6.27976440635416    7.05479770045134
H        16.06324148537642    5.44263609626713    6.48008253718069
H        16.44249918763514    6.98354521242371    7.39075077190972

