43
CSD_code = ZIKFAA | q = -1 | S = 0 | Stoichiometry = C21H15CuPS5(1-) | MND = 3
Cu        2.62204978490860    8.10419011536170   13.48393430629257
S         3.19686211363873    6.22330450926552   12.41457532564540
S         0.40202356075689    7.91594447835756   13.51090203015313
S         1.25125939250019    4.17768860504605   11.48476396963809
S        -1.09348769325457    5.59944419795415   12.40425393051994
S        -1.43512173186585    2.97007294560972   11.05024134873021
P         3.92178469127167    9.53230455696301   14.45601073376568
C         1.55208055502689    5.72173267438778   12.27297892677983
C         0.44910929672759    6.39033529688084   12.70550461410848
C        -0.47848166182497    4.18257960249623   11.61527670297463
C         5.06161473323316   10.49809792106851   13.42197573741343
C         4.48727951202558   11.45270263640206   12.58199188944939
C         5.27409392956244   12.17000660702958   11.70385453564362
C         6.63903442711576   11.93040718147230   11.64229302086767
C         7.20943969948959   10.96643872091103   12.45706917295853
C         6.42703107113285   10.24592632719685   13.34166403360025
C         5.04397416148927    8.72814986560956   15.64439103966203
C         5.49217113415423    7.45678686182778   15.29080341751667
C         6.35271080543163    6.76811830009817   16.12471084847215
C         6.75848517496821    7.33725547202458   17.32175127030191
C         6.29898772151682    8.59304804690457   17.68416163692222
C         5.44289363879813    9.29138838190624   16.85101505085308
C         3.12848117113352   10.84041890565905   15.44668329429616
C         3.75485437492670   12.03920994766576   15.77679652661931
C         3.08483732462486   12.97559918284759   16.54229900201875
C         1.79306719464642   12.72508772185114   16.97887941966305
C         1.16335535289536   11.53783647899479   16.64234783637242
C         1.82738086428253   10.59781239654823   15.87535486006763
H         3.41843859660192   11.61912542229190   12.63129109386376
H         4.82560401974205   12.91262818473171   11.05918706658871
H         7.25526219704455   12.48920111085208   10.95240128611648
H         8.27150988412717   10.77233399262447   12.40116085481122
H         6.87269393232259    9.48947645849012   13.97249582746582
H         5.14561417780016    7.01539582532248   14.36332954799910
H         6.69934678004890    5.78385853645508   15.84579220749215
H         7.42663699175532    6.79795288984786   17.97841724450844
H         6.60796737728814    9.03108649116712   18.62331808477117
H         5.08084963960081   10.26810213684562   17.14017892167553
H         4.75982481854539   12.23662066239080   15.42734442490326
H         3.57137996648674   13.90662420564662   16.79950199144976
H         1.27517442324813   13.46260957267408   17.57588460861082
H         0.15196779425094   11.34754572472661   16.96993141138559
H         1.34045880181718    9.67615084759088   15.57958094706196

