46
CSD_code = ZIKKOV | q = 0 | S = 0 | Stoichiometry = C15H24BCl2FeO2P | MND = 8
Fe        8.20246492212592    8.78425294194706   10.05680759721622
Cl        7.46351618286906   10.18394084438158   12.72302065791608
P        10.29608458423259    9.68075612132815   12.78005234039494
O        10.96418566533779    8.30409567453315    9.41831928928554
C         9.86207030560234    8.54612882226244    9.66573162450806
B         8.83515125451828    9.96091899378634   11.52293384332298
Cl        9.39050024423445   11.55643693340721   10.80518026498256
O         8.42247962655617    6.58063886254682   11.89060273022451
C         8.30293535878946    7.48604229657217   11.18392496656390
C         6.55797794987724   10.22491582217544    9.38553288642207
C         6.02674207742233    8.97254107110472    9.79454118508392
C         6.56034138064984    7.95682030933414    8.93013492718066
C         7.46850367413744    8.57877688690782    8.03918807605934
C         7.50055521431906    9.98065587666952    8.35065848580936
C         6.11118274925692   11.56379971288982    9.87136443155780
H         5.83663310822521   11.52802474701340   10.92266674704882
H         5.23652265548049   11.88564860279013    9.30253387734691
H         6.89296738544375   12.30788844559656    9.74411396357400
C         4.90207426002421    8.78563628864352   10.76329653499025
H         3.94619692506976    8.97623679540896   10.27217964794088
H         4.99719534120261    9.47175566176976   11.60087694377700
H         4.89062823023355    7.77181254029790   11.15494777483473
C         6.10762115394229    6.53055890329765    8.87885232837912
H         6.89953721043595    5.88471567381601    8.50761275600980
H         5.24642302121719    6.43380656868173    8.21513178517140
H         5.81752824766462    6.17946598670605    9.86563608427789
C         8.15053798874807    7.92801166951218    6.87597236851551
H         7.52442987297494    8.00130987560743    5.98478623734978
H         8.33902745316847    6.87615570058154    7.07582208087205
H         9.10178508046928    8.40914093464839    6.66369072270342
C         8.19203999532729   11.03273042153059    7.54221829118755
H         8.51827384820581   11.85367329159192    8.17553363327721
H         7.51489322486955   11.43260660176311    6.78537482355777
H         9.06533821368013   10.62456729817962    7.04020625556767
C        10.38264908654108   11.08729366592274   13.93841331252690
H        11.20639880438689   10.94427475129360   14.63690912252746
H         9.44304609004445   11.15777406218359   14.48368173812826
H        10.53346200157519   12.00481582572937   13.37197282807703
C        10.18955632749944    8.24034185961979   13.89655160971773
H         9.19959180295870    8.22156128998061   14.34936958386187
H        10.94676713358906    8.31169833478250   14.67581938777688
H        10.33404455167597    7.32382914625218   13.32923681120366
C        11.98912689850378    9.61302191768223   12.10121886736111
H        12.71832137580065    9.66460528186673   12.90835862767509
H        12.12900220828946   10.45676750965853   11.42747619848180
H        12.12718931282403    8.69014917774727   11.54304574975416

