79
CSD_code = ZIKPUH | q = 0 | S = 0 | Stoichiometry = C36H40NiP2 | MND = 6
Ni        0.47231163059035    4.92594356761619   11.24613190958682
P         0.35733708206059    5.93246882373549    9.30891530950366
P         2.42117555827602    3.93676938154069   11.20749296872761
C         2.35735881726141    1.14125890083922   11.51230111646185
H         2.09241210000671    1.10197283785512   10.46504462839567
C        -1.69825938428681    4.24041387751122   11.49569584452846
H        -2.00803505904839    4.06809095662902   10.46784118681030
C        -0.32290002017833    4.96035425955270    7.91688771876716
C        -0.85291019134932    3.35275862620504   12.08192648510997
H        -0.53941259449646    2.47771581879958   11.51087310433980
C         3.85304395189914    4.87983332975921   11.84487580597341
C        -2.50385614209701    5.26353340268642   12.25647620081418
H        -2.79015655640326    4.83254916859770   13.21723169974297
H        -3.42539234633730    5.46870688239445   11.70586836143020
C        -0.62580688499796    7.46005232292427    9.15162237508421
C         0.37338893361031    5.60807096342657   13.44067053938323
H         1.42048882810395    5.77861282675248   13.67789173138334
C        -0.07006259023501    8.70795782258175    9.41561498038341
H         0.98618080699312    8.79076947333966    9.63024558352001
C        -0.32804435793530    4.57858025636914   14.29029708509208
H        -1.27060169320401    5.00285841259432   14.63993837743005
H         0.28232732288032    4.37325268636929   15.17342459413188
C        -0.27113171057740    6.49678643074694   12.64118753322743
H         0.27539177465248    7.37275562102736   12.28926450009518
C         5.08600350710142    4.29788705052159   12.11767664219561
H         5.21478433098263    3.23051057709435   12.00330609928461
C        -0.58450882565189    3.24122590645015   13.56411379401903
H         0.28940683690889    2.60010199579522   13.69917620763126
H        -1.43532086829486    2.73254910035440   14.03460776555956
C         2.41176194986367   -0.02752652065271   12.25059686263695
H         2.19938281713177   -0.97448163360999   11.77466267429263
C         3.73985384947604    4.62445638842475    8.74241177968750
H         4.23122060979894    5.33929728183595    9.40701818331636
H         4.51776677342669    4.20017758970301    8.10012206993949
C        -1.76836947374134    6.60292476823365   12.47375733618813
H        -1.96526359137349    7.24961809503595   11.61597448608912
H        -2.18299578054362    7.10274794532540   13.35817532485019
C         2.73302427923943    0.01264582179735   13.59696565732890
H         2.77689191631383   -0.90100337940829   14.17157895618305
C         2.98614945338939    1.23118382621822   14.20709240416478
H         3.22393416164685    1.26884213297007   15.26081816044684
C         3.70105822400990    6.25292696068971   11.99498807147827
H         2.73401439792635    6.69162708238496   11.77490165815655
C        -2.21751843861925    9.74693728034209    9.15392779191881
H        -2.83299447863155   10.63463497983685    9.14867354433146
C        -0.86009130758136    9.84349645723061    9.41018980921020
H        -0.41578761398299   10.80831854880820    9.61027567194077
C         6.14286843796679    5.08138329363000   12.54294674751040
H         7.09869072468903    4.62466526384843   12.75722782663328
C         1.93619736327032    6.48062849042400    8.47924984327404
H         1.65299820319339    7.20500793038516    7.70879142393357
H         2.54832001946675    6.99703944252090    9.22278812274869
C        -1.12947816822657    4.72157410408795    5.66660917148744
H        -1.40476762801429    5.16443789078364    4.71993565042084
C        -0.42685747423268    3.58504034941786    8.08531717043954
H        -0.14696219124820    3.16068855022317    9.04346342523199
C        -0.87778510571235    2.78044142918248    7.05445092112042
H        -0.95524060836579    1.71131759961772    7.19316930164934
C        -1.23044428395095    3.35014716144131    5.84259890853632
H        -1.58434207913223    2.72729818884964    5.03377868258756
C         3.15762867596661    3.46695178051342    9.55870783927068
H         3.95467944731482    2.74523840811212    9.76447761297449
H         2.38578420554922    2.96344737310916    8.97166791051666
C         2.76327368891430    5.36892394181737    7.82801427970238
H         2.10108195623541    4.64932031486466    7.34034314534057
H         3.35945233425854    5.83855744782889    7.03939901001115
C        -0.67486587348197    5.52496014972072    6.69589330428185
H        -0.59902715687623    6.59425550012350    6.55513770483707
C        -2.78537116162033    8.50512860308588    8.91622198609309
H        -3.84670445672960    8.42328264958818    8.72865702277337
C         2.92694692142200    2.39930781069307   13.47153679106799
H         3.10892628731686    3.35239981253450   13.95005087018086
C         5.98265661246654    6.45026892608214   12.69228835250587
H         6.81276231735885    7.05738795588966   13.02344661360198
C         4.75933181832039    7.03773872941210   12.41648697808951
H         4.63307029282319    8.10508657647231   12.53087540279423
C        -1.99777666977775    7.36991362431373    8.92625853134791
H        -2.44330140398138    6.39893409772520    8.75618276956156
C         2.63680495083400    2.36646169845402   12.10909608870422

