83
CSD_code = ZIKQES | q = 0 | S = 0 | Stoichiometry = C40H40NiP2 | MND = 6
Ni        0.07619311500099    6.11583438866402   11.72173134422621
P        -0.92156898287329    5.02869251331197   10.08524893487689
P         2.20033349668571    5.54056446004246   11.72999663844735
C         0.42067886927566    8.41352861637436   11.73575171684178
H         1.24027466641274    8.48943560363016   11.02266829192872
C        -0.27797112036640    6.57879301869351   13.87788644530087
H         0.29760081788874    5.81123839464983   14.39110221000262
C        -1.87654332089447    3.47566907761528   10.25599524735597
C         0.77709097100177    8.80556346196408   13.14723071112910
H         0.55578996721088    9.87196598750709   13.27689417002562
H         1.85428079841863    8.68261837832667   13.27076871041887
C         2.89561687080347    4.80580221625804   10.15408520843888
H         2.68170540952712    5.50099221854731    9.34042124687180
H         3.97887448164323    4.71562249553429   10.26927066363329
C         1.06592992878155    3.28534001364876    9.24502365361505
C        -1.71447791923598    2.72043437299114   11.40839702233602
H        -1.07198083953102    3.09780315766770   12.19115093711284
C        -0.83464515406234    8.24954078740854   11.26489907112899
H        -0.98826649729069    8.18055434223902   10.19241551162443
C        -1.67929672461671    6.81307217729532    8.03492922731873
H        -0.63606451837271    6.83410124453642    7.75302453034473
C        -1.43479590573642    6.21789632358196   13.25158569123643
H        -1.75990310460530    5.17932051748152   13.32755380012501
C         0.23726730396969    4.42554329572768    8.74255336238344
H        -0.36494918695231    4.10897563252799    7.88695151367853
H         0.86045419433926    5.27107167904902    8.44809026537682
C         1.75712770057679    3.36688683195368   13.36237456072755
H         0.72468183043336    3.59392951160923   13.12847438102875
C         2.74094927466165    4.19845928135505   12.84722747680141
C         0.05756795765224    8.00235845276340   14.25235308246891
H         0.70141163313972    7.99136269062056   15.13532011554742
H        -0.86897303434775    8.50667014233072   14.53418339575815
C         3.49307590442352    6.77937599406658   12.08868910626368
C        -2.35791271677829    1.50480558450333   11.55611358027654
H        -2.21961906799327    0.92521026253224   12.45746580028617
C         2.29026153955606    3.46131716540119    9.89904529088680
C        -2.10266743141668    5.98888394552762    9.07268456908272
C         3.80246486254526    7.05558327883436   13.41935264996896
H         3.32019355055269    6.48433874304664   14.20153656120045
C        -2.58185352537552    7.61716179156350    7.36162968022958
H        -2.23974111389769    8.24820378850221    6.55348675128270
C        -2.07534981511442    8.44216012746004   12.09679485018247
H        -2.88809098726175    8.76889461165853   11.44316649346265
H        -1.88939015264325    9.24293893570245   12.81464205824806
C        -2.70039032169111    2.99252062906397    9.24339124124965
H        -2.83650520395877    3.56690554711476    8.33706393575877
C         4.99514279571693    8.53728393542559   11.41395551431418
H         5.45344506007075    9.12169841189352   10.62867402626843
C         0.58835993712559    1.99165949120332    9.05247311853764
H        -0.34444292074526    1.85017252769614    8.52600331175931
C         4.08507328449086    7.54594610336810   11.09102739086602
H         3.83487222254062    7.37135081956396   10.05424000237090
C        -3.91797786650883    7.62071048135371    7.72411565300963
H        -4.62097982997671    8.25099974585935    7.19946001531647
C        -2.53580086294782    7.16754965162479   12.83610428315680
H        -3.10022895260619    7.45680959424963   13.73177866804484
H        -3.22102770334270    6.62169550055876   12.18508450982401
C        -3.44628448089626    6.01293455062330    9.43899198865849
H        -3.78400744672993    5.38372911869869   10.25183530943754
C         2.98284821273396    2.33732308018874   10.34094931828700
H         3.93627522066880    2.46899768337137   10.83211875052731
C        -3.17845230414128    1.03388514778460   10.54653905904998
H        -3.68543203517149    0.08617276561539   10.65591021408203
C         4.07445951970403    3.93542440175152   13.14141368847069
H         4.85247303617465    4.57635939546927   12.74906610646386
C        -4.34737255062917    6.81664618916720    8.76787597043371
H        -5.38801823194202    6.81967237410650    9.05983974902104
C         4.71556012042664    8.04127898286012   13.74107493674848
H         4.95470805449701    8.23784783972296   14.77657883492504
C         2.08806027414073    2.28325834883963   14.15438723610046
H         1.31374530019632    1.63941284942803   14.54622258846560
C         5.31839965189091    8.78329646685464   12.73736046162836
H         6.03152111922524    9.55515137777581   12.98709145210255
C        -3.34965964941619    1.78170408463694    9.39178931141533
H        -3.98916551970746    1.41460192085278    8.60134576333336
C         1.27502953556097    0.88761237204933    9.51715261504286
H         0.87155715244871   -0.10235104310356    9.36421490376857
C         3.41723170732420    2.02809236937175   14.44445094985793
H         3.68493512859225    1.18474506849435   15.06444399264337
C         2.48250694760708    1.06204672635412   10.16921888552440
H         3.03711365103262    0.21078016192897   10.53515851197290
C         4.40707984904037    2.85763345111252   13.94067650606148
H         5.44468407404948    2.65822636233559   14.16915469603372

