99
CSD_code = ZIKVIB | q = 1 | S = 0 | Stoichiometry = C51H40CuFN3OP2(1+) | MND = 4
C        15.39771119319839    9.53342688120283    1.12380164520758
C        14.13005394304878   10.05953039914952    1.35026743462751
H        13.86433334039812   10.37713965979869    2.35044840346394
C        13.22719121870625   10.16882676998092    0.30986664952068
H        12.24501716764057   10.57979088200110    0.48810120843874
C        13.58911158054658    9.75491719244174   -0.96143376588520
H        12.88825991712428    9.84270094931368   -1.77753644331371
C        14.85021500957921    9.22842706948257   -1.19015357205883
H        15.12751295088021    8.90427370211964   -2.18197127138953
C        15.75931182722506    9.11834462125963   -0.15391207691073
H        16.74765966622199    8.71753449295424   -0.33599669848051
C        16.43090108273264    7.76034942778488    3.12878160933743
C        16.00404247826735    6.70016299729044    2.33665774461646
H        15.70672711415184    6.87472705294590    1.31242553602180
C        15.95799667068822    5.42331166668520    2.86753341557650
H        15.62926726705768    4.59927214150251    2.25229599897107
C        16.32852558206874    5.19911706221201    4.18399491789957
H        16.28824277431250    4.20074117458816    4.59218445438736
C        16.74201091992385    6.25572851526527    4.97998834922329
H        17.02229868369253    6.08131362118318    6.00845806701830
C        16.78743561873700    7.53362611057499    4.45534350465475
H        17.09293959989020    8.37390298430888    5.06778796165610
C        18.15136785775279    9.54411539073006    1.73236631933215
C        19.01385226398693    8.47175966250656    1.55159321277648
H        18.70897611489239    7.48193692017724    1.85982818968259
C        20.25743930407011    8.67661477614154    0.97851917658098
H        20.92206251355648    7.83967683223547    0.83013667201002
C        20.65624020677062    9.94812556951230    0.60274916306748
H        21.63161490629663   10.10232768637007    0.16864667462813
C        19.80817179954010   11.02955502851420    0.78131308719508
H        20.11015708647994   12.02668865881099    0.49756134170820
C        18.55851884383281   10.82114497372950    1.33634636955389
C        16.83334521855468   12.28547661377470    0.60087210102219
C        17.02309118637088   12.07893691950029   -0.75316180853133
H        17.88930467631883   11.54048733808580   -1.10801059369267
C        16.07714918467101   12.56128901000990   -1.64416231955402
H        16.22128696326210   12.40444146174590   -2.70180494535013
C        14.95415606314144   13.23124000857262   -1.19072964263691
H        14.22212129129422   13.59429900649877   -1.89496608161162
C        14.76066445729343   13.42966331892474    0.16588919313225
H        13.87547698564937   13.93403859810079    0.52414442816739
C        15.70614918595583   12.97094011004849    1.06998192675337
C        16.72165405667830   14.34823231189056    3.35157869380452
C        17.58632284445198   14.99304866326446    2.47687773293018
H        17.56993865021137   14.75486993417981    1.42287667560230
C        18.46403091524466   15.95046699364591    2.95815883132146
H        19.13151313149831   16.45532503291312    2.27568299641946
C        18.48446948514411   16.26775625036073    4.30578665023573
H        19.16951032987273   17.01658267346604    4.67375076872222
C        17.61807083399986   15.63062650586189    5.18198537044414
H        17.62635104010497   15.88412405444763    6.23210237803342
C        16.74437974129396   14.67296309042840    4.70706292068430
H        16.06082044935293   14.16635716215542    5.37835458120118
C        13.97475702523578   13.83087791713201    3.15935985837608
C        13.77860669381285   15.18326655119099    2.89193584996637
H        14.59503026655179   15.78001053596060    2.50873230503245
C        12.54104114880614   15.75558760181862    3.11924765950345
H        12.38796634473253   16.80355336949584    2.90879664845857
C        11.49796335961597   14.98877717896547    3.61595916071385
H        10.53362572687757   15.44098431537498    3.79071344958647
C        11.69235347298026   13.64543629253054    3.89106706131680
H        10.88112785893683   13.04980771225310    4.28169367637983
C        12.92933201499124   13.06789492884318    3.66709827537296
H        13.09369486452579   12.02196317652366    3.88581173168698
C        14.01746679672999    9.92968977447698    6.09022488057250
C        13.46921578449525    9.53011858086478    7.29760083490748
H        12.52161344683828    9.02057181541747    7.33244531423995
C        14.20362830544691    9.82303850933712    8.43640662019528
H        13.83154017421862    9.53870389194036    9.40803619625537
C        15.42112460141473   10.47703043727354    8.32622315698418
H        16.00360383050607   10.69579480631088    9.20497524436401
C        15.86777388877444   10.82926570474831    7.05623704044847
C        17.55292495633964   11.63247543762924    5.55144855575771
C        17.98606517899490   11.97214655937798    7.72776558125052
H        17.82971149561558   11.96445657822847    8.78525253473734
C        19.02037813649985   12.45968151584176    7.00625291433884
H        19.92503576572314   12.93355062707175    7.32659142065384
C        19.60980283950243   12.53636563505970    4.57822106481459
H        20.14969703155571   13.46374077968956    4.78401084654239
H        18.98455850657362   12.68393704942725    3.69099901320076
C        20.58102856249493   11.40465728542274    4.32319223882681
C        21.90910622975739   11.67154752175101    4.02429470286131
H        22.25547925744746   12.69408203173231    3.98418595950651
C        22.79106502646022   10.63411100733843    3.77507357231381
H        23.82225326240189   10.85237226376722    3.54332266222852
C        22.35502065448437    9.32204953905048    3.83418423052166
H        23.04564985725544    8.51343445758801    3.65111567831125
C        21.03035981254479    9.05014765316665    4.13139957676318
H        20.68271250462463    8.02926269613549    4.17957422878648
C        20.14702978401678   10.08678017776911    4.36859746284830
H        19.10817286146295    9.87366001493739    4.58446082523997
Cu       16.40724538514553   11.19841028744894    4.00709984646619
F        13.37033133199198    9.68605304541473    4.94851444196151
N        15.15985013369397   10.55934017757217    5.96036893053221
N        17.08335893014569   11.46318827571537    6.81941581866126
N        18.73192835910703   12.24573487186197    5.68259764623836
O        17.68712440931935   11.86828420106065    1.59377398307936
P        16.52543663822371    9.48224196812344    2.55184390286204
P        15.57623428950096   13.01153931071538    2.88061426012116

