58
CSD_code = ZIKWOH | q = 1 | S = 0 | Stoichiometry = C23H28ClN5Rh(1+) | MND = 8
Rh        8.99118635505285   22.66062253705496    9.90660760560984
Cl        9.23608927812109   24.71733024116926   10.99719447201910
N        10.80338079594474   22.08745383997651   12.30602661051194
C         9.61854440466344   21.89252690985485   11.70473892366882
N         8.84986888978321   21.25159852914067   12.61531999575399
C         9.55583950777819   21.04261457164271   13.76882383164831
H         9.13574549246001   20.54748792008125   14.61935675196765
C        10.78614626066993   21.56823874493976   13.56979805137726
H        11.63462663437149   21.61700819257219   14.22025546385483
C        11.94054637494104   22.77598297747783   11.75775477847981
H        12.70859059769899   22.06299156735215   11.45352325808975
H        12.35564000476121   23.44477883776568   12.51053941225367
H        11.61719981883184   23.36988539537055   10.90396482067519
N         7.17331224525902   22.64595445450270   10.75049497538735
N         6.33958144995032   23.55105989248377   10.37860715937429
N         5.30289569738342   23.51188050774539   11.18746196834926
C         5.47201561591812   22.54179380518707   12.11620810226658
H         4.76936107683583   22.33655054882374   12.89479774560168
C         6.69388562156082   21.97969768480253   11.82357796452377
C         4.23160082513804   24.41151011818500   11.03360118145897
C         4.47028420361946   25.61256045910533   10.37358022571165
H         5.46410130970473   25.82696500891721   10.01441157458633
C         3.43286194434221   26.51038047696630   10.20664855851175
H         3.61211505512405   27.44496126030484    9.69913919679807
C         2.16948761916592   26.21377452234576   10.69418335013291
H         1.36248635048932   26.91741937076118   10.56394284092561
C         1.93935649265419   25.01376913398523   11.34833233931724
H         0.95516470975211   24.78102093774260   11.72313432701595
C         2.96700693896816   24.10369436508846   11.52041630227112
H         2.77768948725065   23.16223196616191   12.01233484585403
C         7.47204284871804   20.85738128578398   12.42372052226368
H         7.04589027090471   20.56984270174248   13.38639795898307
H         7.43205223196229   19.99116983398029   11.74744268737922
C        10.37313345255289   23.11803203782102    8.25807656792388
C         9.02500179244109   23.47360293032123    7.85818870544710
C         8.24730542271756   22.29140308406513    7.84381016196404
C         9.07675269393016   21.19956689289413    8.29420496371633
C        10.40778141386470   21.71372749344880    8.48938148876571
C        11.52755500986882   24.06245504652088    8.17397430945604
H        12.44630000106521   23.61776887499454    8.54710541441895
H        11.32521690990530   24.97613078088398    8.73109975398052
H        11.67957515208150   24.33892054690471    7.12979016383466
C         8.62675743745057   24.82084744788577    7.35202719137288
H         9.08729666573189   24.99177359910792    6.37805062782127
H         8.96627581662928   25.60362894916052    8.02729580600470
H         7.54856550962596   24.89653572020198    7.24462525592605
C         6.84121167602162   22.17676783720663    7.35329278181306
H         6.84949713552280   22.13585420419292    6.26323871382378
H         6.24706153534779   23.03668223468647    7.65654635573107
H         6.36274718232164   21.27249376426233    7.72160115942152
C         8.72326705834385   19.74797780103981    8.22751275658556
H         7.67098114298721   19.58095015745872    8.44637020373400
H         9.32233187255432   19.16396385093307    8.92223311648554
H         8.91899851651164   19.37718741667183    7.21992010508624
C        11.62100987882224   20.86279697865155    8.69263564260842
H        11.83780470291594   20.34006964192415    7.75989263717520
H        11.46455217203084   20.11263466474765    9.46521875578614
H        12.48872343905803   21.46138944493399    8.95376955853833

