61
CSD_code = ZIKWUN | q = 1 | S = 0 | Stoichiometry = C24H30ClN5Rh(1+) | MND = 8
Rh        3.15150875028488    6.95850283070433   12.49392223335674
Cl        1.87680351686274    7.54031490366277   10.62467614146987
C         4.89695341656707    6.79008276972902   13.78224512363213
C         5.30917975848862    6.41923216617628   12.44659503533410
C         5.09241537484063    7.52569625463281   11.59577316965992
C         4.57778022797818    8.61899240157981   12.40059618145345
C         4.51321821874814    8.17516168536414   13.75329835236619
C         5.15517055826753    5.99878341774657   15.02511549118082
H         6.18040761619919    6.17347802415269   15.35567987845974
H         5.03755050589377    4.93111929857368   14.85236983281699
H         4.48741540010589    6.29917576257310   15.82907141843701
C         5.95979946563355    5.13147102273360   12.05626644054104
H         5.59166664454114    4.77883046824112   11.09483380981201
H         5.78914101786697    4.35670355252250   12.79940281712119
H         7.03573704347880    5.28880482025041   11.97210020202431
C         5.48645343550555    7.65043588163925   10.16187830271129
H         5.71257903251728    6.67907016557724    9.73152733921256
H         6.37200532455119    8.28288722564252   10.08527547889654
H         4.69139225987040    8.11255250299061    9.57976638138751
C         4.45340256406490   10.01900918925758   11.89266019711647
H         3.97584265118027   10.67438979615111   12.61566830917605
H         3.88871155256832   10.04790709240359   10.96276671288584
H         5.45174835115558   10.40677288373449   11.68602058940562
C         4.27463500909549    9.01460161566913   14.96750781542520
H         5.22848256311290    9.17260318828195   15.47295460736794
H         3.60182077623713    8.52911704525509   15.67173244316061
H         3.86750524879292    9.98681450607790   14.70565373687157
N         0.63641193605446    8.29203030300521   13.60957377910774
N         0.61015341517302    6.17861072401860   13.99059364045321
N         2.50302654486824    5.09384822729201   12.13743777348689
N         2.90603489596165    4.50475340752450   11.06746212229518
N         2.26818414220231    3.36504393701070   10.96491196074818
C         1.37452533682030    7.17662080715483   13.49011291884311
C        -0.56846976515977    8.00445213480471   14.18478705217469
H        -1.30830456240200    8.75492918692498   14.37127805146426
C        -0.59005068014285    6.67325502000878   14.42403529286911
H        -1.34573837712433    6.05225457882477   14.85800726211381
C         0.98398507508302    4.78427395691707   14.06143796585285
H         0.09965232911443    4.18950587021200   14.29705160365362
H         1.72268206881205    4.64675122100607   14.86462468763334
C         1.58085649039874    4.33603132068712   12.76993275991233
C         1.42474238756563    3.20103837586724   12.00437378330746
H         0.80426873105595    2.33860986924302   12.12618741187208
C         1.01054227536395    9.61158762335938   13.17701927491843
H         1.48429781383996   10.16149706725581   13.99172180770412
H         0.12103432276661   10.15047767307505   12.85688771783619
H         1.69474271208485    9.52716962933907   12.33315656373251
C         2.56522996350967    2.44535138113478    9.90429734757153
H         2.76167218969514    3.03404638544042    9.00407977150557
H         1.68695338763919    1.81674128722589    9.73026186832955
C         3.77112507468160    1.57545303419570   10.20635636822083
C         4.32689240227151    1.48638481370944   11.47352236170819
H         3.91224861405445    2.04593816532234   12.30064195341658
C         5.42432588106099    0.67130970094446   11.69861452604458
H         5.84972482518559    0.61127532846076   12.68875905827846
C         5.97005103287146   -0.06440737036578   10.66264265900170
H         6.82341027379267   -0.69957152404988   10.84078066623068
C         5.41583021613791    0.01841354100142    9.39590638932531
H         5.83462232121942   -0.55357160823418    8.58288441344645
C         4.32441726267546    0.83600203159008    9.16809933533696
H         3.89419317848839    0.90068342879961    8.18000181033994

