74
CSD_code = ZIKWEX | q = 1 | S = 0 | Stoichiometry = C31H36ClN5Rh(1+) | MND = 8
Rh        9.97474325306504    2.39782471224612   10.01357364676213
Cl        7.65802196599094    2.61834115961907    9.94259957585331
N         9.48461265511234    5.38947236240427   10.62738860911464
C         9.77976811298080    4.16216053405591   11.10208151422995
N         9.48623892230349    4.22014594297928   12.42573181210788
C         9.00266262084304    5.45677549252115   12.75840788582829
H         8.70568002248917    5.70853487063814   13.75505257858999
C         9.00491338363343    6.19159589277555   11.62638928440123
H         8.71984754023387    7.20740031276169   11.44707090982169
C         9.82438010926004    5.97182458774611    9.36931504887597
C         8.84985986178988    6.20501537801273    8.39949875119851
C         9.23188100878904    6.86141787036181    7.23720394402116
H         8.49122589765977    7.04331842058580    6.47294458991944
C        10.53211251983226    7.30558362573759    7.03835528726072
C        11.46461776525554    7.10816780543084    8.04893964203324
H        12.46943086058236    7.48538340931589    7.92592352480698
C        11.12561463247028    6.46028004655147    9.22757285236300
C         7.42786042653502    5.80450507500992    8.61761100608673
H         6.96269744517029    6.45877053619790    9.35499807952268
H         7.35839586422382    4.78631573244780    8.99367861169407
H         6.86191220291620    5.88216628571292    7.69386191188321
C        10.90539818075904    8.02328740507545    5.78056827219748
H        11.97842747527856    7.98712272517751    5.61171259194986
H        10.60973688822576    9.06985618353570    5.85188781014688
H        10.39484882532900    7.59225238314583    4.92272175002089
C        12.11198800165612    6.34734458398139   10.35248825099296
H        11.85915429079063    7.06459103709760   11.13463653231272
H        13.11694695734064    6.57036874507317   10.00581811604972
H        12.10084732384668    5.35215515446046   10.79430848366414
C         9.75228358026466    3.20905564999562   13.42412006568680
H         9.27830497807010    3.50774980096302   14.36089604831331
H        10.83849845444125    3.14361044073976   13.58652335946056
N         9.51336839837675    1.40766659659185   11.76138587441208
N         8.99234220823189    0.23960535198458   11.61445968104429
N         8.38477720887322   -0.08619638394177   12.73421471351046
C         8.51271650025030    0.90855540367083   13.64173763897791
H         8.07952708027400    0.88134252315958   14.61810050956332
C         9.24695327027774    1.87775159526232   12.99753913238621
C         7.71009399118544   -1.31352231710814   12.86613925270877
C         7.20338439651921   -1.91786182240464   11.72123541743341
H         7.32307014104055   -1.42399503133612   10.77035737395672
C         6.54157741218178   -3.12631283023662   11.82962692548639
H         6.14173120469189   -3.59833074354783   10.94605195452364
C         6.38572009500999   -3.72591562803630   13.06971278656955
H         5.86653363750881   -4.66775818217494   13.15162535878681
C         6.89600658408077   -3.11877393766983   14.20598887050880
H         6.77911045337167   -3.58816644583050   15.17007564316024
C         7.56324163407287   -1.91059397423423   14.11219702497899
H         7.97788163717185   -1.45074455669156   14.99594171306795
C        11.78719506190926    2.65745402913209    8.69659995043033
C        10.57532009057745    2.63686816434758    7.92797001826512
C         9.98776311074351    1.31848151621276    8.06883237573470
C        10.76007289987068    0.59036067009888    8.99934632622336
C        11.85997580419075    1.43448774478277    9.42499564210521
C        12.90015459272357    3.63967069375876    8.55941869962851
H        13.58808390128575    3.26105337488230    7.80079564393539
H        13.45822891617024    3.75359380895239    9.48486926460777
H        12.54001855011689    4.61040072136422    8.23479911212773
C        10.20345933234833    3.58024476599025    6.83107431205380
H         9.12898228053062    3.74492365880310    6.80265460248981
H        10.50197753142343    3.14180284170842    5.87710511368639
H        10.70033266794254    4.53877700170399    6.94060310153676
C         8.85018518232422    0.81897505333606    7.24524315179887
H         8.48480066811765   -0.13655736531312    7.61046273727327
H         9.18731369598913    0.69433459901890    6.21515656326672
H         8.02523327084659    1.52912395587981    7.24517557832719
C        10.63287659171579   -0.86461270981955    9.31243002959499
H        11.25182055645128   -1.42812244483751    8.61218888115341
H         9.60567758851820   -1.20219011068990    9.21292169236153
H        10.97067448263347   -1.08876682768020   10.32057730817785
C        13.02679354737832    0.97352836016029   10.23661277517563
H        13.51696719380149    1.80601146746834   10.73604842321122
H        13.75540743221244    0.49884788339880    9.57717982740485
H        12.72663716993214    0.24396536746013   10.98516865106225

