65
CSD_code = ZIKWUO | q = 1 | S = 0 | Stoichiometry = C24H32CoN2O4S2(1+) | MND = 6
C         9.69507692904073   -1.90864712219849    2.83792423588294
C        10.85201412127529   -2.70344024408969    2.99565855862080
H        11.18064499552739   -2.92626094036292    3.99990166675857
C        11.54296742277880   -3.17201983454090    1.90723349793910
H        12.43323456831959   -3.76367092058194    2.05806268166120
C        11.11363163032228   -2.89118501885031    0.60712162306215
H        11.67173879912159   -3.26340743335752   -0.23647800499876
C         9.97380425863937   -2.15428245258409    0.41896270382623
H         9.61875135773010   -1.94287181792987   -0.57908120269944
C         9.24547854763312   -1.65216157266780    1.51236668931185
C         8.00600073684222   -0.99421430951312    1.29925428625939
H         7.61243692281406   -1.06034173639726    0.28306133436314
C         5.94363004616535   -0.01746997348081    1.80588335788032
H         5.87508027696300    0.05831424845711    0.71523536222890
H         5.71474440742624    0.95467507231086    2.24345472835491
C         4.92773889058643   -1.05629608898161    2.29581940295673
H         5.24606980315003   -2.05186679616461    1.97750422602905
H         3.96648961076804   -0.85240804046789    1.81997633104643
C         4.69938262599384   -1.03136810664881    3.79831242694577
H         3.97175539190711   -1.79156452157178    4.08332980822312
H         4.34836195776945   -0.05176570769185    4.12197661067216
C         6.57619673465061   -3.07701255627811    4.42924662870352
H         6.71402632718498   -3.16795862027427    3.35256169179522
H         7.52784928966174   -3.25813198083946    4.92488751673534
C         5.50640240075632   -4.04592950781300    4.94381242140704
H         5.95084068874767   -5.04370985163725    5.03684971675349
H         5.17165084631797   -3.72557140143121    5.93405734835352
N         7.28698314250548   -0.39993501581741    2.19092769036380
O         9.07497052504701   -1.47508485422859    3.88720949255420
O         4.36102988521313   -4.07435117941895    4.13337909731484
S         6.16593943270840   -1.34594962055887    4.84048952497192
Co        7.90238265662110   -0.00003342258794    3.96848274702180
H         4.50819501130494   -4.64165021202308    3.36914998208052
C         6.10963853399412    1.90831982296775    5.09944640008170
C         4.95249483028137    2.70286875178397    4.94200069180793
H         4.62359664880859    2.92567360037567    3.93784097404930
C         4.26165898092197    3.17124771997679    6.03059110403671
H         3.37124735247340    3.76273365609346    5.87996936803073
C         4.69130259405539    2.89044149003027    7.33060496550281
H         4.13332760908532    3.26255818986216    8.17433898424554
C         5.83130425960758    2.15374161542972    7.51849063776209
H         6.18662858341271    1.94237296874724    8.51644775333642
C         6.55950419414891    1.65182401178888    6.42491250575072
C         7.79913588423841    0.99409463192218    6.63778445574511
H         8.19289417725371    1.06029260571644    7.65389895807431
C         9.86160245184149    0.01781020532371    6.13072005113621
H         9.93040927519763   -0.05793731025644    7.22135291659524
H        10.09064526387928   -0.95428592135184    5.69312495427780
C        10.87714230006570    1.05688819616756    5.64058652750326
H        10.55855517496069    2.05239103642842    5.95885789634573
H        11.83851395674823    0.85332351366790    6.11632329001039
C        11.10526510713705    1.03189742889606    4.13806164615885
H        11.83268748679326    1.79222388317981    3.85286509437303
H        11.45645087746345    0.05234535965929    3.81441760916657
C         9.22781798824563    3.07700795945429    3.50725754833830
H         9.09016403517747    3.16802822376793    4.58395905751469
H         8.27600575133839    3.25777964064472    3.01179652164659
C        10.29718391009286    4.04622468397898    2.99238210043848
H         9.85243620292215    5.04388433464579    2.89947660275698
H        10.63173028756389    3.72596413611839    2.00203977938003
N         8.51806248744737    0.39994156058421    5.74596310793378
O         6.72965030318625    1.47497301698403    4.05000340835242
O        11.44279438815304    4.07496586258108    3.80245588093297
S         9.63847236461511    1.34602045506957    3.09609007074502
H        11.29557649739661    4.64195620998458    4.56690495559060

