61
CSD_code = ZIKWIB | q = 1 | S = 0 | Stoichiometry = C24H30ClIrN5(1+) | MND = 8
Ir       10.58926608098738   15.55500000654117    9.24117144641901
Cl       10.51714906109652   14.50646501742007    7.09974511427819
N        11.68225710753983   12.72694741230995    9.69848096342449
C        11.92977282805461   14.04843474198581    9.66245688542675
N        13.27139772701200   14.16789130670407    9.81316298534732
C        13.84614148092635   12.93444773057705    9.94807320345324
H        14.89911206074760   12.79828887151821   10.08055806773032
C        12.84170633336396   12.03004463460472    9.87725785976321
H        12.86914477461174   10.96166161992147    9.93397182323923
C        10.39699189030580   12.10436190820228    9.53132629148970
H         9.83507036130398   12.13274408012395   10.46477798229031
H        10.53675640630628   11.06822209678421    9.23212666642643
H         9.84592041609672   12.63053290579727    8.75280140612111
C        14.00844860081676   15.41124241539846    9.82695182909096
H        15.07189234669095   15.19573643550578    9.70924725764295
H        13.85727001792220   15.91200306408079   10.79343790811402
N        12.22235535087278   16.51874492151901    8.51334095124795
N        12.06587072542731   17.36263607302909    7.55018857575334
N        13.24825019736120   17.71695428760141    7.11800766931288
C        14.21587469900599   17.09776069058895    7.82331059052626
H        15.25902181418625   17.24589313832489    7.64179440490739
C        13.54318233793558   16.31537224708801    8.73513822183450
C        13.40448148994566   18.70097604773733    6.07549812691160
H        12.44017821050721   18.77569497768522    5.56783019972547
H        14.16240407568131   18.35445196192842    5.36992450584408
C        13.79964634054989   20.03019257841732    6.67761002393861
C        12.89035179780681   20.71447522102100    7.47502087805050
H        11.90585057412424   20.29968490489064    7.63590804363009
C        13.24018562599577   21.92275958739408    8.04971858161140
H        12.52744212464327   22.45312257308903    8.66264948964457
C        14.50068744264625   22.45478063749055    7.83083957153295
H        14.77152040951603   23.40025476076432    8.27424990845779
C        15.40987605585570   21.77516688103129    7.03851550623816
H        16.39077123021177   22.18869760567878    6.86267042737844
C        15.06318104811556   20.56222649810528    6.46691426043587
H        15.77367347838096   20.03789960651523    5.84438204897295
C         9.15928255771932   15.46272761319723   10.99140830592032
C         8.44350493278391   15.32215726001098    9.76789392659532
C         8.58477389219505   16.56077363974070    9.02309863002810
C         9.41971556763186   17.42032021797726    9.75663616431128
C         9.83944231049037   16.72666736153293   10.95620794319281
C         9.10027765010514   14.56468702507271   12.18429860107073
H         8.52291100271932   15.05720017688896   12.96770004461799
H        10.09089444822715   14.35647121552091   12.58412895260741
H         8.61165318670958   13.62355766505645   11.94948307168542
C         7.44988878157551   14.26727588855920    9.40867028661719
H         7.55430910812829   13.38095933866369   10.02791882594247
H         7.55272666838254   13.97974490262725    8.36413515831012
H         6.44253265429654   14.66344814094140    9.54506549293930
C         7.83729738002967   16.86696767580895    7.77158594037553
H         6.77036501489153   16.93416639287665    7.98744527415158
H         7.98075892789492   16.07713877688163    7.03589305038693
H         8.16371954485411   17.80713588297167    7.33632140090558
C         9.73896290675788   18.83954721730672    9.42392525121084
H         9.80863892381576   18.97730967805310    8.34736121520283
H        10.67606460944206   19.15262251850136    9.87925507852870
H         8.94694826486473   19.48805575696534    9.80119802356044
C        10.54403376729206   17.34966383259410   12.11695782710169
H        11.29013482693727   18.07106991032401   11.79103397234883
H        11.03137161184208   16.59521480920830   12.72982362366700
H         9.82138893784677   17.87594765532525   12.74269426253517

