75
CSD_code = ZIKYAV | q = 1 | S = 0 | Stoichiometry = C31H37N5ORh(1+) | MND = 6
Rh        4.85853292384225    4.49231522340792    9.81217857332847
N         4.43121394633557    5.33254508306760   12.74429180299311
C         4.11697674824269    5.42568758850853   11.43824567592753
N         3.31022983957557    6.50668617106205   11.34015614819371
C         3.12458144511630    7.08255145696651   12.56834289264436
H         2.51628762808746    7.95086646768689   12.71384313612942
C         3.82661373923820    6.33864043348354   13.45336194670743
H         3.95623449445801    6.44964456209275   14.50941761550966
C         2.83648698182304    7.02708972353096   10.07813830069503
H         2.26659220619698    7.94164124771528   10.24870741305670
H         2.18531766247344    6.28292447804555    9.59869532220177
N         5.57127535199687    8.03249864939400    7.89173819166062
N         5.92259929751948    6.82955261451196    8.28809696906005
N         5.00057907821304    6.37494888544631    9.06733748472831
C         4.01430980012491    7.29515153676942    9.19534678219257
C         4.38272762244493    8.37663518409658    8.42720376853547
H         3.90200840131554    9.31070737009347    8.23001094567804
C         5.27111806460316    4.35272019250023   13.34365450378396
C         4.71742412147599    3.44895615738185   14.25239965927660
C         5.55356897472968    2.51366229413680   14.84367678105632
H         5.13460394101202    1.80881351041109   15.54606635293984
C         6.90927795607007    2.45989771079919   14.55086034293818
C         7.42778101393256    3.36449292546003   13.63381506868987
H         8.47967128187197    3.32772302280679   13.39263654747215
C         6.63004688846897    4.31716293745904   13.01966182232418
C         3.25352249870960    3.46034240227536   14.57531624053479
H         2.93740008396796    2.47619300511648   14.91024573907133
H         2.65665622044306    3.74131533591046   13.70964467311561
H         3.04170172218227    4.16656649867472   15.37785060006183
C         7.79192712262441    1.45691422921110   15.22186131272913
H         8.12115043855949    1.84391784991466   16.18626517723688
H         8.67510471675192    1.24989990348544   14.62340651352696
H         7.25729105289812    0.52754670077859   15.40169235133001
C         7.20968353668634    5.26363233990971   12.01386394445371
H         6.82663023483950    5.02271854517552   11.00517802825706
H         8.29263283050250    5.18401505990215   11.99666736952723
H         6.93878955387010    6.29402843850932   12.24244307008993
C         6.34200239349280    8.74207697020810    6.90037149963312
H         7.37277543966618    8.38986484127626    6.98626312492728
H         6.29823090079961    9.81213839523815    7.10994596855474
C         5.78538195562579    8.43431957835625    5.52998653252800
C         5.81412539258181    7.12374978531237    5.05947988622115
H         6.26114507546580    6.34967694056794    5.66694427204745
C         5.28260471101213    6.81137877926637    3.83026319533039
H         5.30140748849761    5.80174681729704    3.45307909471043
C         4.71024343377561    7.80711820749161    3.02991914602099
C         4.68292075740936    9.11773115723218    3.50020280409715
H         4.25395834351414    9.91060557284958    2.90957054552867
C         5.21101334563074    9.41871497441642    4.74408571192630
H         5.18232770291053   10.44081549128265    5.09298984989670
C         3.65361367952470    8.34630236487084    0.96665815034577
H         2.77455793575152    8.82482863030565    1.40873401225001
H         3.35236611973522    7.78699785600857    0.08308728192115
H         4.38274357449162    9.10963886717930    0.68037182614963
O         4.21915307602577    7.39580789870341    1.84240960662405
C         5.01388374326674    3.67197481206547    7.77203081683726
H         4.79619876091265    4.49736807215198    7.09396760508607
C         6.24819127668920    3.64281772662555    8.37810405630122
H         6.95041039416899    4.44297141322671    8.13891708967542
C         6.89115388756521    2.41992898502944    8.98443128456968
H         7.74819125099365    2.74381430317718    9.57916772588139
H         7.27832786495469    1.78509730165638    8.18151309373451
C         5.93890555985977    1.60759009219650    9.88280081566728
H         5.42254801509026    0.84126614173170    9.30511438808564
H         6.53241814169738    1.09384284823920   10.64032091985574
C         4.91839750682462    2.48019246466943   10.58033052284900
H         5.04196651603661    2.52094959132400   11.65978010861224
C         3.64958314452642    2.74893027625265   10.08578176213607
H         2.85984269534294    2.95789421516069   10.80903345051643
C         3.11900534403965    2.30504760616015    8.74357474674296
H         2.22756304615447    2.89719284266581    8.51783424720370
H         2.79756292911400    1.26154839351792    8.81854238818748
C         4.12860601987241    2.46199009278042    7.59103168624208
H         4.74968461965535    1.57166286085530    7.50156255146806
H         3.57443853613036    2.56400109691464    6.65647916397149

