73
CSD_code = ZIKYEZ | q = 1 | S = 0 | Stoichiometry = C30H34N6O2Rh(1+) | MND = 6
Rh        6.33931268197334    6.33200585666984    9.06655214666119
N         6.09680981930057    8.63051926036545   11.09795190499232
C         5.70367358549356    7.43074076836414   10.63152712336486
N         4.90139273124249    6.91717380849692   11.59165593072181
C         4.79470663496416    7.78589166805647   12.64488946923063
H         4.20255699854013    7.57521048926718   13.51095213182066
C         5.54382687134915    8.86730767049877   12.33016134149266
H         5.73758864145606    9.76472653443158   12.87919084715807
C         4.34991063163190    5.58314349580822   11.53207773510328
H         3.65916445765448    5.51175258688776   10.68019498729830
H         3.80228896468749    5.37090985010087   12.45159008326233
N         6.92757164706004    3.01215266321624   11.38023577807821
N         7.31111846139953    3.88629677810669   10.47177850148622
N         6.44514127342806    4.83959474645831   10.43726738834179
C         5.46625624569632    4.60435012598800   11.34537312237754
C         5.77628498302589    3.41166973263649   11.95917981399458
H         5.27890345323994    2.85209253151138   12.72217773594433
C         6.96822578551261    9.54652556023696   10.44407488811428
C         6.47007586476587   10.78557670613341   10.03672203386263
C         7.33819626828724   11.67302271324526    9.41820803932693
H         6.96222948181989   12.63281371612137    9.09723659456102
C         8.67158132738188   11.35570796708908    9.19878967230821
C         9.13425372780757   10.11140488170551    9.60597609287500
H        10.16810421027234    9.85060816863644    9.43549889805143
C         8.30334474074228    9.19379668222082   10.22923887646540
C         5.03126661188640   11.15675948920469   10.23474745257747
H         4.37954331897976   10.28876824690947   10.15636920607664
H         4.72816064105468   11.88655275274811    9.48899437456301
H         4.88216143145662   11.60655826523702   11.21609816796420
C         9.58960320593479   12.34123115327084    8.55034883182026
H         9.96299394474313   13.04216756239474    9.29690721881308
H         9.06779290935310   12.91493374375123    7.78840761161863
H        10.44364846860016   11.84339988699024    8.09906755585911
C         8.82343786189517    7.84907887680351   10.63613318360186
H         8.57290285638791    7.62856420939906   11.67343403658784
H         9.90279219080266    7.80941509339256   10.52295380169041
H         8.37762332767100    7.06351498649917    9.99874050996616
C         7.64156401207589    1.77268528279397   11.55913383194033
H         7.42488997857560    1.37725008555305   12.55236458197257
H         8.70987734587656    1.99091853937193   11.47607785590592
C         7.23234341547669    0.79298823133493   10.48112380176732
C         6.61827972333862   -0.41025249855748   10.80312747130441
H         6.45096345420161   -0.67589562705708   11.83572548793667
C         6.22587816184808   -1.27940874779802    9.80119529697047
H         5.75014335563228   -2.22132761189487   10.02707229681298
C         6.44100496406841   -0.92633436685119    8.47711190970500
C         7.05617088121970    0.27225990984107    8.14036923621780
H         7.21574675732330    0.51156974285903    7.10027639079637
C         7.45402815096763    1.12733678834551    9.14797040846956
H         7.93714496968062    2.06219185003329    8.90655220316958
N         6.00898105332710   -1.82176016764863    7.41997065526592
O         5.53871398435497   -2.88397124326649    7.75168711410377
O         6.14253864457553   -1.43479341331058    6.28195653114625
C         5.12500684189295    7.38697618204739    7.65043219608422
H         4.37885377647886    7.98083887528869    8.18036574118902
C         6.41522204300070    7.89202606955740    7.57852689420394
H         6.59927003510318    8.83924596605009    8.07953608118730
C         7.38672365666122    7.59657061664885    6.45708101453749
H         8.01395589241223    8.47513238309280    6.30056746804065
H         6.83173077844907    7.42942760088993    5.53439555644660
C         8.29929987551105    6.39585533236395    6.77113116725659
H         8.63764237687304    5.93114511060494    5.84001296136342
H         9.18927001264194    6.75497048703181    7.29275224290708
C         7.63874797535567    5.34766839697169    7.63175334592364
H         8.33842219257278    4.75641271482660    8.22482671697516
C         6.37405861258975    4.84283192067572    7.43804816727540
H         6.13010953715825    3.88314293220201    7.89467769815147
C         5.46564363644234    5.24288041389145    6.30010221937225
H         4.86337273566741    4.38158108541855    6.00657893868830
H         6.07027272523300    5.52131578646252    5.43815378071028
C         4.51750323674073    6.39192211691169    6.69141372186266
H         4.18689055214853    6.92401799957039    5.79416649300673
H         3.62278839701760    5.97104202692005    7.15885943330186

