17
CSD_code = ZILJEM | q = 1 | S = 0 | Stoichiometry = C2H8AuN4S2(1+) | MND = 2
Au        5.67862145597051    4.29335130168891    7.51011777966911
S         6.07864631327238    2.06254565025579    6.90063271658739
N         6.80988533188785    0.86834309441277    4.72372833646658
H         7.08849249423438    0.77399430056061    3.76031594655921
H         6.74617569562988    0.03801326757506    5.29026132745771
S         5.27946223213459    6.52586123783944    8.11305153310192
C         6.53179690634757    2.04745511117687    5.26999359674042
N         6.61767775748501    3.14994890869314    4.52912247929415
H         6.88824251821707    3.11254518939117    3.55833393586761
H         6.40587350905683    4.05015233761789    4.93148821768674
N         4.47593092515476    7.72330339922438   10.26195976493542
H         4.16372895740673    7.81940494460556   11.21487316043144
H         4.57224245934184    8.55375040909137    9.70011599068921
C         4.76409084930552    6.54232134271341    9.72498701702289
N         4.63874161073658    5.43936859157430   10.45959710430518
H         4.33238899714120    5.47775988428916   11.41971441157398
H         4.85820198667868    4.53838102928996   10.06300668161355

