51
CSD_code = ZILLEN | q = 0 | S = 0 | Stoichiometry = C19H22MoN2O7 | MND = 6
Mo       11.86141897718251   10.01253488508646    9.24917452706836
N        11.25791238372795   11.35541249602622   10.86233295225954
N        10.69939421310238   10.70747443273889   11.91814068347380
O        12.05456793786571   11.63214922135937    8.43576902384576
O        13.26764344838192   13.01258934172037    6.57856080756109
O        10.85533555957692    8.95246560841883   10.50642828017401
O         9.67853455487459   10.30023077092136   14.30856941867399
H        10.08167334506479   10.80213666038194   13.56659952824734
O        11.41660395932320    9.11632906153363    7.94326868385548
O        13.34922796260968    9.70663376139642    9.88842173057924
O         9.35887158437131   10.79320823009082    8.73629088021541
C        12.17568571012566   13.40056526758069   10.01800777645484
C        12.42239884521551   12.85631487367241    8.74081962871005
C        13.07664876833998   13.64760115009697    7.75713135033335
C        13.45377180471914   14.94216690322663    8.06377993110416
H        13.95380033292325   15.55559918551435    7.33125978113066
C        13.18932580987990   15.47529700986612    9.32691768054207
H        13.49073121719372   16.48928110873171    9.53905813844645
C        12.56184973667172   14.72701564736032   10.28890201544499
H        12.36656856967553   15.13914399143054   11.26693176826632
C        11.55348785018337   12.60293100129430   11.02589371596039
H        11.34361545678804   13.06323934701331   11.99263543096402
C        10.54673993458579    9.42874911340987   11.66711204669719
C        10.00080189981284    8.53969584376382   12.69062539899813
C         9.59678790306434    9.00986860989274   13.95298371274859
C         9.07603396332175    8.10471019870518   14.89390911180889
C         8.97614244095130    6.76799563360057   14.56074554783726
H         8.57755842139593    6.07559640334582   15.28795064805724
C         9.38147945990304    6.29757659323579   13.31579926715268
H         9.29839478854336    5.24748543308969   13.08315797231724
C         9.89005156270108    7.17585550641104   12.38941667896176
H        10.22332237325776    6.84260702941830   11.41675301965705
C        14.01797095313472   13.65217234966637    5.56380423798117
H        15.00547491251439   13.93797684017678    5.95121700055619
H        13.49670568340134   14.55872509485967    5.22426864868931
C        14.16500273863388   12.66270468177093    4.41921685976056
H        14.64673390561250   11.75799153509798    4.77905496957105
H        14.76250011070440   13.09906937518577    3.62381466201382
H        13.18606075799908   12.39774764125045    4.03019656370998
C         8.65314104987076    8.62760261675617   16.23082792210090
H         8.26231095233034    7.82966670611360   16.85546446860722
H         7.89071215113122    9.39459321458594   16.10650832819474
H         9.50016646128499    9.09374388621831   16.73116168847656
C         8.21406098855331   10.05918517091551    9.16069159150954
H         8.19175860137591   10.12848267118591   10.25320863615742
H         7.31699582874791   10.55767492588393    8.76318155336850
C         8.25449862940607    8.60688159026025    8.71273949844686
H         8.15279409593427    8.54030631371805    7.63111232029795
H         7.44631100838397    8.04789123171191    9.17691980884175
H         9.21013002205270    8.16204461050942    8.99580086893894
H         9.54109037361979   10.53027922378594    7.82076323525224

