71
CSD_code = ZILNOZ | q = 0 | S = 0 | Stoichiometry = C33H29N4O2PPdS | MND = 4
Pd       -0.61119219600923   -3.71147659409493    9.34777264484035
N         2.22173183034965   -5.56106595243042    6.70251773873483
H         2.33493546224906   -6.47842819834507    7.11441009958454
N         1.09851032715956   -3.54710598629638    7.01078606292511
N         0.22013764103940   -2.84456447611637    7.76490383707456
N        -2.66413996646656    1.26329910856254    8.93773948517978
O        -0.18186973700716    2.40733226731817    5.86688708576508
H         0.02780007727284    2.94397911122854    6.63952613121237
O        -1.74464928461121   -2.05190737540663    9.72496924126314
P        -1.64607454309080   -4.52442721504695   11.17236300309790
S         0.66866197358585   -5.51874051091591    8.79503636765753
C         2.94304229291322   -5.33252328456376    5.53837302033793
C         3.74423053223649   -6.37055991624052    5.06040124986718
H         3.78147153836880   -7.30664879051692    5.60059271064434
C         4.48417575375635   -6.20679049890251    3.90644844178665
H         5.09958360597807   -7.01871716995784    3.54778830912654
C         4.43833365257091   -5.00917706951321    3.21158304150548
H         5.01703201537278   -4.88243405809275    2.30931185937385
C         3.64447902142433   -3.97769870911663    3.68408784360976
H         3.60331537382351   -3.04111713165581    3.14773590553821
C         2.89923671980909   -4.12974546842360    4.83832921455548
H         2.27948400915943   -3.33196140221594    5.21019422346450
C         1.36474104357705   -4.75832892562575    7.38043092996662
C         0.00416817556603   -1.62263351924075    7.37306382615323
H         0.55737469590270   -1.32137380954075    6.48670522673906
C        -0.87773589719714   -0.66023588751583    7.94829242008575
C        -1.70971341766674   -0.94458277660125    9.07199908535899
C        -2.59502469656837    0.09619046945350    9.51319817142175
C        -1.86987077182530    1.53054006182654    7.89799604974168
H        -1.99907907342143    2.51538004708426    7.47140495155541
C        -0.96529601136921    0.63860627530736    7.37519786735292
C        -0.08089069329555    1.05155585589861    6.22011119262063
H         0.96803399340311    0.80929500501402    6.45726071920958
H        -0.36501179501507    0.50156185463078    5.31651326019475
C        -3.47990411321458   -0.17585658777850   10.68769679775520
H        -4.17246339525468    0.64938464516934   10.82001931870638
H        -2.87554574043481   -0.29572220408393   11.58657552820355
H        -4.02519210369412   -1.10642498156841   10.53455964545034
C        -1.20922147969932   -6.01301449355993   12.12434088091205
C        -1.16189667569269   -7.21212598834076   11.41799123718576
H        -1.36396361197389   -7.20280402956133   10.35371896521456
C        -0.84535692347731   -8.38758667121347   12.06999058966918
H        -0.80714584110971   -9.31692377124954   11.52145320246192
C        -0.57018833497584   -8.37100358841417   13.42923465339422
H        -0.31883566775664   -9.28890810948279   13.93961836712316
C        -0.60886676574133   -7.17854946989757   14.13204837182295
H        -0.38849236984116   -7.16697717341154   15.18951909311645
C        -0.92592575751832   -5.99679346553625   13.48410668575786
H        -0.95107287148607   -5.06447821010709   14.03127001206800
C        -3.38901784097350   -4.84357327476818   10.77220898593661
C        -4.30247745346190   -5.34199521689374   11.69613514634121
H        -3.98035746109128   -5.56893125675117   12.70343346253621
C        -5.61306848056833   -5.56450070946436   11.31377874797176
H        -6.32577361812871   -5.94421956177419   12.03121273376295
C        -6.01178154691073   -5.30794825032138   10.01120590546618
H        -7.03660706440088   -5.48204648357715    9.71879993088825
C        -5.09689744948100   -4.84318148183491    9.07954119577744
H        -5.40750337503504   -4.66274584574351    8.06112063484257
C        -3.78576356494858   -4.61495878508443    9.45669296715198
H        -3.04640173477528   -4.25753925192124    8.72841892221429
C        -1.56772960568809   -3.18071333217279   12.39211243380130
C        -2.59894039952321   -2.77371097354103   13.22580652165830
H        -3.55533683365283   -3.27453723436059   13.19296236244785
C        -2.40406669932937   -1.70180337050836   14.08203535992503
H        -3.20883593665725   -1.37702167644970   14.72524647204086
C        -1.18846200860098   -1.03897788893294   14.10722181992782
H        -1.04653802961247   -0.19962916488922   14.77171037129389
C        -0.15775364051643   -1.43884677142088   13.26882479586135
H         0.78401694056646   -0.91026274584034   13.28100545818706
C        -0.34794676642574   -2.50384283101325   12.41011612891792
H         0.44438256901823   -2.82052512364082   11.72113507668349

