60
CSD_code = ZILTIA | q = 0 | S = 0 | Stoichiometry = C20H23N9O5S2Zn | MND = 5
Zn       10.73342703162898    1.12538830817249   10.06793677390712
N        10.65030162546323   -0.48528009222894    8.67381799720926
C        10.50318904913417   -0.99796621501066    7.46722891142029
C         9.88604752472091   -2.22105126264497    7.25866225839720
C         9.40739696632733   -2.86444685263055    8.39379543583910
N         9.54193698004183   -2.37831708612105    9.60829975930045
C        10.16918488087691   -1.20736897543554    9.72616777640635
N        10.38592746605909   -0.59983318666097   10.87853280603574
S         9.79053348425935   -1.12450956973081   12.31829330905368
O        10.35773998096223   -0.20890299085007   13.28790754310987
O        10.03061742923555   -2.51884091055798   12.54299577109873
C         8.05180447453650   -0.79369437786289   12.18482875810731
C         7.18561254305583   -1.80897732689425   11.82871357280870
C         5.84032287943302   -1.53619028584068   11.68382582032097
C         5.35540374676025   -0.24134687550458   11.89373268894180
N         4.00657898099993    0.02046605447831   11.81798135070062
C         6.25223408032040    0.77309946776364   12.24383486352355
C         7.59642889698296    0.49740237713576   12.38161425608533
N         7.91766303218994    0.41106899276659    9.04909887462239
C         6.71908368624939   -0.07515468651408    8.82064454196359
C         5.56801909147998    0.70040578602345    8.88897977995254
C         5.76037724067344    2.02205686060587    9.25563641694845
N         6.95117800495440    2.53020973349662    9.50198752445533
C         8.00195087338319    1.71051611049742    9.37206951090514
N         9.23262393161459    2.20826686844446    9.52052432940947
S         9.35592520402261    3.74519790834238   10.05649399090894
O         9.09068609093447    3.82963890831271   11.46986586146576
O        10.70999978100998    4.14228797452030    9.68236047487793
C         8.24501440603459    4.79377559103763    9.14672072062689
C         8.33047557194276    4.81820914309998    7.76711701862571
C         7.50152564129764    5.65277652994450    7.04648434763207
C         6.58267323691453    6.47827441284520    7.70424246256962
N         5.71567528072302    7.26449060294462    6.98801498986951
C         6.51946803366643    6.44248732870053    9.10195894209781
C         7.34692463186829    5.60313157133877    9.81718731745241
N        11.32470298828376    1.98339143717199   11.86307666304670
O        12.30910495526005    2.17000500416357    9.05434626702107
H        10.88766746848838   -0.41245197061485    6.63993209050636
H         9.76880902495908   -2.63710017814139    6.27241166492776
H         8.88661860493667   -3.81230102264346    8.33113227338190
H         7.59025049577561   -2.79532720568407   11.67103534214585
H         5.14936251843871   -2.31997947808357   11.40832244612720
H         5.88735555849600    1.77831536864594   12.39538095215117
H         8.29466235998679    1.27547069643144   12.64751480105562
H         6.68569860107804   -1.12775108701301    8.56565023384868
H         4.59251519457175    0.29749539077504    8.67416777686497
H         4.93548481229032    2.71876561522763    9.35484763429405
H         9.04727997658296    4.18095564251489    7.27385114001344
H         7.55570502112234    5.67745682886087    5.96789535524271
H         5.81439240906192    7.08043142710463    9.61442497441454
H         7.31512942533002    5.55537371721549   10.89319920199283
H         3.43943557824063   -0.64689414445237   11.32242572618887
H         3.73757557306292    0.98374601503486   11.70716357530547
H        11.89261106406178    3.04648177744414    9.23943124428036
H        12.28830035578788    2.27079011249333   11.99644750281765
H         5.94728166067298    7.45325118962002    6.02741639908590
H        10.72879105559316    2.78972031466535   12.05154615685093
H        11.10488741697779    1.26854075467909   12.57336983964246
H         5.25645337447546    8.01234709337263    7.47986093056451
H        12.31827274669622    2.07249686520951    8.09789305159455

