36
CSD_code = ZILZUP | q = 0 | S = 0 | Stoichiometry = C14H10FeN2O9 | MND = 5
Fe       -0.40674100565586   21.01483286673024    9.25799768423103
N        -0.73570658414220   19.32194546265531    8.66550374081858
C         1.33951315667199   18.87666728280560    9.53149832512862
C         0.13052287471675   18.32629636211284    8.93521460830583
C        -0.17629819422974   16.99509090834741    8.67026373351984
C        -1.41563279968591   16.70117042360069    8.12553640969391
C        -2.31740751494225   17.73443659076320    7.88178445612399
C        -1.94146145423166   19.03468087151606    8.17340313656478
C        -2.79432485637650   20.29796449314975    8.03481070348709
O         1.40031166620067   20.09060000922002    9.75301501874314
O         2.33415010040251   18.05832534621465    9.82586783060460
O        -2.21412771409564   21.31472986203603    8.54889808300797
O        -3.87096432549533   20.26976383290977    7.47670780015262
N        -0.31139661025513   22.65611226674361   10.04079743798127
C        -1.13407309721305   21.41846604866178   11.89488547153892
C        -0.73647288970636   22.76979168303972   11.30559871844781
C        -0.81730508806710   23.99023564762849   11.94833941660076
C        -0.45987654321357   25.14977080610687   11.25906682257365
C        -0.04625574099696   25.04630300484561    9.94544479326532
C         0.01506561969903   23.77906550025873    9.36252869825326
C         0.38058545533791   23.46184072803223    7.99965229195490
O        -1.07752872050347   20.48560623799885   11.02286546404061
O        -1.44523712766917   21.31186224708176   13.06270545299154
O         0.36067038095339   22.28211976711962    7.62080669841756
O         0.73664215158372   24.44948319393847    7.18927784329485
O         1.32027409792465   19.77521954689176    6.73597125155634
H         3.07227898273528   18.55441949471820   10.21672297402560
H         0.91719404294887   24.11136067727107    6.29704005587614
H         1.23644074122495   20.71726753704544    6.91197327081178
H         0.64026671354883   19.56657252585638    6.09172903619397
H         0.54531089704484   16.22766107497575    8.89846443891047
H        -1.68557128240397   15.67968622629527    7.90693476265567
H        -3.30284371889548   17.55588553130019    7.48136994816952
H        -1.16531740417142   24.01219309090873   12.96910101642391
H        -0.51924427322213   26.11304312391425   11.74093770150716
H         0.22126006417934   25.90982972730244    9.35778490412815

