56
CSD_code = ZIMFUY | q = 1 | S = 0 | Stoichiometry = C28H23NO2PPd(1+) | MND = 4
Pd        5.65691649098967    4.41194586792413    8.47968041230837
P         6.56984469646299    6.38242419660702    8.94004482429902
C         8.14282186385156    6.30687679101172    9.87776234523506
N         4.78383469680127    2.53710545438589    8.17555583424154
C         9.04677406728817    5.23507220655033    9.73429407465484
C         7.10117526533766    7.21668290928665    7.41621063200944
C         5.52616467236613    7.46272871751363    9.95633166231366
O         2.84321138978602    1.52212221432518    7.78849111081267
O         7.62452372517569    3.54993192610936    8.77201115055446
C         3.35947043980040    6.32574629401660    7.74243976543683
H         4.01686972591906    7.18298976441738    7.83952774138406
C         8.51061352172698    7.39710939567624   10.65840382273658
H         7.81246683026606    8.21064985722220   10.79581123683407
C        10.30706323036770    5.31970467698362   10.33815701167930
H        11.00268445832935    4.50235822437237   10.21715298845372
C         3.83330444698786    5.04313527073607    7.96555005952976
C         3.52453680243491    2.65119943273371    7.92780351641662
C         2.93967401417792    3.97142933025561    7.77842854933387
C         4.73741863562089    6.77304707287449   10.87718529603437
H         4.79374807928634    5.68071959736157   10.90563519720129
C         5.43886815510246    8.84564533407012    9.85528652437654
H         6.02170329207882    9.37730720002746    9.11650267423138
C         6.70111112569345    6.61115079456364    6.22409513247094
H         6.09284804092963    5.69791795783842    6.26434845663338
C         1.60899020905555    4.17987331456479    7.42663912675539
H         0.95494929954436    3.33107527302476    7.29834781685873
C         5.12349907097063    1.12927870248129    8.24395341723885
H         5.52958259537812    0.88597777347580    9.23092025953535
H         5.87819093119678    0.88888841855036    7.48891454594481
C         9.75018783994648    7.44881852197011   11.27584119894983
H        10.01053361329796    8.30219542166378   11.88301086670091
C         4.57928547122600    9.53486242367312   10.69501513972632
H         4.50449732251177   10.60887558422320   10.61894615083306
C         8.72708984196046    3.98889285822396    9.04921576780600
H         9.60843215932487    3.36259806501346    8.82491927369348
C         7.07229872492646    7.16345114209203    5.01194388938672
H         6.76184005931278    6.69893466096712    4.08869971055200
C         7.84650459741291    8.31357227255605    4.98491682877342
H         8.13479503302314    8.74554505416280    4.03920453210912
C         7.89919779599567    8.35658881410226    7.38584624356670
H         8.24627708917345    8.80455303580531    8.30628443539096
C         3.88906522097969    7.46833638813339   11.71623656992105
H         3.27972539485990    6.93997016953346   12.43301355207259
C        10.65674974887562    6.41366540134424   11.10433674174161
H        11.62831645294048    6.45907915790328   11.57047037830627
C         3.81416825099858    8.85113650658556   11.62572941961198
H         3.14758166329161    9.39595777383502   12.27605005392089
C         8.26227051119334    8.90422204030084    6.16803675795682
H         8.87646952120255    9.79133080849922    6.14152187669701
C         1.15670803745558    5.47275902285166    7.24040019723771
H         0.12751575933425    5.65098581070369    6.97101719902595
C         3.76515917668590    0.44053391511428    7.97132697392595
H         3.76558455619931   -0.16412148456829    7.06183088155620
H         3.41608465810095   -0.16739821834686    8.80884935834755
C         2.03204834472702    6.53692798572362    7.38499851631296
H         1.68295338211025    7.54503289898033    7.21905230036212

