29
CSD_code = ZIMJEK | q = 0 | S = 0 | Stoichiometry = C8H12Cl6FeSi2 | MND = 10
Fe        5.18300382041400    2.90166803351570    2.87348646104856
Cl        5.52713579613713    3.85982138236255   -0.42432919355681
Cl        5.89318188395025    0.70805464806791    0.33675370833111
Cl        8.25547387301017    2.80802264308108    0.90829995320443
Cl        6.72539986840442    2.18785144319504    5.87361798466979
Cl        8.56789864933706    3.86054489447782    3.84105468369185
Cl        6.02736303745221    5.29904899639407    5.17515889074446
Si        6.25760045465279    2.59634551379193    0.98295191890886
Si        6.65424550918280    3.54584059051465    4.37021493185659
C         3.41498708570414    3.89461262259176    2.39356805019185
C         3.40666767229883    2.66147466603006    1.73281676051228
C         3.71985300891411    1.49326097206414    2.43356409947821
C         3.95546402091460    1.50814925417844    3.81855852760641
C         3.82728938749706    2.72273068483900    4.50035624847172
C         3.60655770058658    3.90336574151641    3.78522374221147
C         3.22681527871713    5.18458922868658    1.67337629149647
C         4.33178877383062    0.24277565586811    4.50838729731297
H         6.21630396183462    1.93121662424164    2.99858133489724
H         5.84557871492488    4.09983700068125    2.48496733407897
H         3.19979877618235    2.61685849438865    0.67525601705269
H         3.77690389067193    0.55408172219041    1.90876414002789
H         3.94014394005593    2.75518259308347    5.57246100870952
H         3.57385588977040    4.84558769630659    4.30664372536941
H         2.21381154083577    5.55928384386014    1.81739911433231
H         3.41091085788865    5.06709926032882    0.61073300839101
H         3.92333902217606    5.91865660156757    2.07028654977535
H         3.46884566342239   -0.41618836422069    4.59851319229058
H         4.73030677396887    0.44075460639395    5.49774111288933
H         5.09137514726344   -0.26742704999932    3.92139310600311

