65
CSD_code = ZIMKOX | q = 0 | S = 0 | Stoichiometry = C28H20Br2FeN12S2 | MND = 6
Fe        6.46058198938118   -0.00042006873721    0.00017881320580
Br        6.02412311049409    2.27961792339863    9.66064878113258
S         8.41304234456723    3.41072831311985    2.07259129030762
N         5.68966849541225    1.63758692723324   -0.76603497565058
N         5.53064346419770    0.71193901745988    1.66582800347952
N         5.62859582332667    0.48072601022214    2.97072664675833
N         5.28411955772386    2.62470637756883    2.69094082219921
N         5.15167582146822    3.98914973272824    2.87792039016480
H         6.01355614840383    4.44859282150259    2.56683172618735
H         5.00510395018285    4.18259890727730    3.86576614729924
N         7.93358883584195    1.10626034045830    0.61851522874327
C         5.67963802012525    1.99805399651729   -2.04546973293859
H         6.06862144763458    1.26802086196970   -2.74048680679335
C         5.22711930691543    3.23458392488363   -2.47310308501156
H         5.24458652180137    3.47675669023165   -3.52364271635962
C         4.76116888220712    4.15128619232306   -1.53868391202640
H         4.40752374864207    5.12369743005777   -1.84442363229646
C         4.76229593264819    3.79207323757813   -0.20281995750280
H         4.40880595044483    4.46069631366753    0.56574371439548
C         5.22974476954917    2.52903987519030    0.14350378164414
C         5.29288151575181    2.00494072904931    1.48213928429479
C         5.51178713363788    1.62741138581342    3.59929500702696
C         5.63159903999826    1.80522997292761    5.03708725153258
C         6.38205722349214    2.85199569109355    5.57252254059028
H         6.92215375405778    3.52845927674988    4.92622085627625
C         6.50148835013680    2.99160139219302    6.94250861103961
H         7.08583852544053    3.79688309701992    7.35984229775160
C         5.87295332115367    2.07997887591703    7.77462835751050
C         5.14670518015250    1.01714166209532    7.25913449277409
H         4.68019126303244    0.30638179577909    7.92339134004848
C         5.03134511621146    0.88025498372494    5.89057766163293
H         4.47712285438646    0.05860151603205    5.46570201838882
C         8.15213929072921    2.08534136770930    1.22804093037663
Br        6.89829793082953   -2.27787353452243   -9.66099316702189
S         4.50728641568785   -3.41140500800923   -2.07200934820502
N         7.23169989626202   -1.63803226576322    0.76619684973474
N         7.39033466643026   -0.71265302194103   -1.66561494698759
N         7.29258946858160   -0.48116412146884   -2.97048406201629
N         7.63514106015875   -2.62550043424658   -2.69101059349400
N         7.76616686304599   -3.99004602160820   -2.87822086795494
H         6.90404057793457   -4.44863801240457   -2.56648159755804
H         7.91162717248290   -4.18349781818733   -3.86623150853255
N         4.98667693780527   -1.10662648956666   -0.61842068696603
C         7.24319533455330   -1.99801867763728    2.04577482971165
H         6.85508276346232   -1.26767934184725    2.74095099090588
C         7.69614036863626   -3.23439455993234    2.47336085706443
H         7.68002474133510   -3.47610640381452    3.52402943934486
C         8.16082692937947   -4.15157493216102    1.53876449302750
H         8.51473036854525   -5.12389798526010    1.84447611129739
C         8.15821968230399   -3.79288034533651    0.20275982849734
H         8.51076213369609   -4.46182274543365   -0.56596759075326
C         7.69063757432898   -2.52989086670083   -0.14349638362479
C         7.62702521202681   -2.00588743702380   -1.48213963025069
C         7.40837842669821   -1.62786409307504   -3.59920889003532
C         7.28881582609792   -1.80517248810948   -5.03708786753492
C         6.53727158614298   -2.85081991061303   -5.57319595984501
H         5.99603804281607   -3.52680950187519   -4.92734027492633
C         6.41826963227813   -2.98979732791887   -6.94329144141787
H         5.83324958073538   -3.79430917808173   -7.36115570893418
C         7.04837147182529   -2.07871725336037   -7.77482446654932
C         7.77581320482547   -1.01701319908653   -7.25865399222245
H         8.24350321915415   -0.30659393414929   -7.92245124924266
C         7.89066182858456   -0.88069169832333   -5.88999704026976
H         8.44557996301844   -0.05978787856702   -5.46459319788931
C         4.76707443119379   -2.08475008473973   -1.22906410353006

