25
CSD_code = ZIMPOA | q = 0 | S = 0 | Stoichiometry = C6H8Cl3MoN5O2 | MND = 6
Mo        0.20871181491721    2.21983307647555    2.62767114508641
Cl        0.41738658562871    1.37414953521011    0.41172828897358
Cl        1.23132352178496    4.08327011262761    1.96688736066257
Cl       -0.71588941174210    3.37904299102416    4.47052275357184
O         1.36859413423587    1.37555358516365    3.39996288222333
N        -4.64432881429708    0.53249663493280    1.73092635950276
C        -4.76575719334406    1.71278323331339    1.18967046148309
N        -5.93728143087764    2.04868845139688    0.61254843337446
N        -3.74281662472034    2.62292106802661    1.12804390182415
C        -2.51999822725298    2.33099903619333    1.68603180188457
O        -1.55552519229739    3.13044740599562    1.66876991995520
C        -2.38722068083957    1.07690856002931    2.30020891383792
C        -3.45991123017685    0.17944831789113    2.27275230735541
N        -1.15980706098999    0.87111042073179    2.87617670621184
C        -1.14120815351860   -0.31439948178413    3.70681941800552
C        -1.92600813244225   -1.46633440791887    3.05825577565573
N        -3.29004923440502   -1.04509682063368    2.80414962544875
H        -3.85312347139006    3.51769747381854    0.66553889992271
H        -6.70792246773502    1.41783608960439    0.74539558567298
H        -6.12858733709145    2.99719594753428    0.34379348441628
H        -0.09914055850180   -0.60049347040691    3.86495383447974
H        -1.59520076407710   -0.06279540926128    4.67645345825656
H        -1.93975536128937   -2.32788404044380    3.72631678388759
H        -1.42739314469405   -1.74378407508296    2.11980405805242
H        -4.01219156488572   -1.73259423443629    2.65971784025433

