70
CSD_code = ZIMPAP | q = 0 | S = 0 | Stoichiometry = C36H28CuIN3P | MND = 4
I         8.86548382366660    3.06832920492731    2.16229716381301
Cu        8.72988079315162    3.16272641326247   -0.33394625750397
P         9.65673157648077    5.01459623399772   -1.20191894437049
N         7.91997367393421   -0.49552700908185   -1.55556838914980
C        11.45119254808563    4.81806421464713   -1.41991001584004
C         9.23220945399179   -0.83450011675692   -1.34749420886842
C         9.90030004063856    0.37900331449302   -1.05916780992336
C         8.20380681653135    7.25411574345854    1.83754620789507
H         7.23233575077355    7.39748768758209    2.28636761468694
C         8.52029932369992    5.57928392574167   -3.71763546026998
N         6.82143517973579    2.95710908043214   -1.17032119749132
C         9.16921511536169    6.10366136286009   -2.59157094384825
C         6.64949069366005    1.67130632647755   -1.52259574146681
C         8.34877778159430    6.40268638693441    0.76086832076657
H         7.49488697104928    5.86460444784636    0.36924506261245
C        10.56059537635427    7.69912161370223    1.79085586577102
H        11.42732309288007    8.19823490380717    2.19933264670634
C         9.59961989648601    6.19691340020852    0.18437720070737
N         8.99352786856237    1.39718064385060   -1.09928412047121
C         8.06836653108891    6.45520768234619   -4.70345976125048
H         7.58047488355126    6.05048197743200   -5.57895546885945
C         9.90771196476858   -2.04352339923194   -1.38541640660800
H         9.39502423352040   -2.96968853388107   -1.59675797868065
C         5.82049333725021    3.80373686032930   -1.32147106805807
H         6.02278754026834    4.83052688396769   -1.04436967150324
C        10.70963317202921    6.84964143712042    0.70886008405236
H        11.68943152255533    6.69040649109724    0.28015085113161
C        12.10701592512390    4.09190803376304   -0.42682844064072
H        11.54105987526372    3.72962149713755    0.42212983816687
C        12.16469513125262    5.28949438448861   -2.51592625279997
H        11.66104924808096    5.85260000699674   -3.29105897534129
C         8.91016285974249    8.33344103578459   -3.48128803298517
H         9.07028863563329    9.39743766970356   -3.38860145445098
C        13.52342840175411    5.04106486345243   -2.60909748523700
H        14.07694289283178    5.41090869790843   -3.46037190589886
C         5.42569970719443    1.20478416931994   -2.01417723256358
H         5.30907312759037    0.16958054217866   -2.29641108328178
C         8.26012167620537    7.81840019570543   -4.59161556617320
H         7.90781467662914    8.47842727028047   -5.37052025355335
C         9.31299117138441    7.90321297877785    2.35498595073032
H         9.20639223718812    8.55866863219858    3.20631745665899
C         9.35097545512127    7.48161223243588   -2.48764138377475
H         9.84764637171263    7.88633232063077   -1.61705579317454
C        11.93168584758641   -0.81358265122769   -0.85365273350804
H        12.99360180880284   -0.84218687856248   -0.66230052671567
C        11.26510084558054   -2.00904089783201   -1.13364685264331
H        11.82722263622318   -2.93056823655977   -1.15111286217791
C        11.26813794887348    0.39406592804698   -0.81127101214568
H        11.77511639297262    1.31992070065001   -0.59127055324932
C        14.17315443951434    4.32475443102040   -1.61768811743745
H        15.23352731120695    4.13522084121032   -1.69695681581518
C        13.46387784171958    3.85202378259864   -0.52358220354232
H        13.96955700356667    3.29553359204325    0.25207840215131
C         8.33049215035152    4.13541627333887   -3.92428727650509
C         9.38656678301595    3.24402942965791   -3.75534980617125
H        10.35621996623386    3.60993589382458   -3.44665339242672
C         4.57627640719505    3.42553591659729   -1.79226291491156
H         3.78066713831650    4.14772530574968   -1.87857946313206
C         4.37728506744700    2.09134573796357   -2.13678753516871
H         3.41715204542493    1.75713539084873   -2.50111916488717
C         7.10451995144633    3.64617359045132   -4.37231910120663
H         6.27096965628277    4.32445648067016   -4.49042440274986
C         8.00643635513193    1.42706220282183   -4.49598288119731
H         7.88405608925387    0.37882828697841   -4.72980040235427
C         6.94333405755413    2.30261813260577   -4.65070614512059
H         5.98673173344899    1.93760454286669   -4.99725172088702
C         9.22693657361351    1.90114744775572   -4.04832640960060
H        10.06187897792404    1.22493702454042   -3.92985379592109
H         7.16141556743746   -1.13235299449680   -1.72643978702334
C         7.82251304949424    0.85967901810906   -1.38324948531824

