70
CSD_code = ZIMWID | q = 0 | S = 0 | Stoichiometry = C28H28Br3N6O3PPd | MND = 4
Pd        1.40764149702570    3.89964661908506   11.32161977992473
Br        6.13287872299601   -2.34201403419300    6.17848003199507
P        -0.24170961209802    4.52847960745920    9.88727720625822
C        -0.06764439946200    4.32252625254188    8.06081079830062
H         0.88007295265491    4.78169569439781    7.76711443869593
H         0.02970592562466    3.24637247102376    7.89267873606850
C        -1.21335399679310    4.88767923521713    7.23096258088027
H        -2.17317533412892    4.50911797764267    7.57475958271983
H        -1.08654328806115    4.59797348775456    6.19015231228403
H        -1.23465099643710    5.97328977057553    7.27490276480409
C        -1.80909611073986    3.62726352421095   10.28753354969644
H        -2.63270854410047    4.33359579435116   10.41142857208430
H        -2.04509685696070    2.95077929476748    9.46205596048392
C        -1.58999034280281    2.82438237839339   11.57053139676644
H        -0.69758278502311    2.18544931347399   11.46678239920165
H        -2.44739748051236    2.18993207795734   11.78741854568793
H        -1.43467138043872    3.49936456511128   12.41321216829428
C        -0.59224862281112    6.31397068406339   10.14212579367724
H        -1.35757376096372    6.68140439421994    9.45598781552415
H        -0.95587041126026    6.40939543236676   11.16756717259496
C         0.72409670126702    7.07208215022397    9.99040003341006
H         1.49757879889073    6.58176474711895   10.60199474649533
H         0.62404015136975    8.10220978942890   10.32465625774853
H         1.05599512745004    7.07754621227757    8.95344191229224
C         3.48466568785391    2.21701434999233   10.77308655648937
N         4.19884481793642    1.44030635519976    9.88296279957893
N         5.39218933169292    0.84039685301056   10.03013431319612
C         5.93364235046073    0.73023562233516   11.19001913562101
H         5.43412248289686    1.09315026159371   12.08555851247082
C         7.23202726430748    0.12650904435821   11.35442491244014
C         8.04991110927301   -0.23631832627552   10.26166362885194
C         9.30079607283141   -0.80770704392934   10.50342089849281
H         9.90610305131065   -1.07901692690991    9.65362936329205
C         9.74595281500032   -1.02481547583137   11.78836671654103
H        10.71146736379452   -1.47213145460374   11.96508635919191
C         8.93861210084062   -0.65922672206553   12.85914070057396
C         7.70317051227677   -0.08905117517330   12.65453291300005
H         7.08459132539053    0.19038514042709   13.49402185469674
O         7.68240863066657   -0.04277077888603    8.99154490989023
H         6.79271375261977    0.36522013763421    8.97677727671027
Br        9.55513346606742   -0.94990522802144   14.63798491248772
N         2.44087940270948    2.74644014691040   10.10753549620627
N         2.47339083368815    2.32541865192526    8.83304433604164
C         3.50851169369883    1.54033054932189    8.68190883917690
C         3.85602670151250    0.89576287914856    7.43433251570002
C         3.34876827303238    1.41629016907229    6.22460876813434
C         4.57224950654566   -0.26279196374608    4.99303804558076
H         4.86210814040789   -0.70808039270766    4.05449179102448
C         5.02085787352639   -0.79787894068335    6.19081122848095
C         4.67180223660903   -0.23439343454804    7.40018631225668
H         5.00867416796714   -0.68416413034585    8.31952835786628
O         2.50693332679211    2.46098765807508    6.18234858213067
H         2.27888579743031    2.72355638574983    7.09942257495929
N         3.74747201165410    2.44586025547429   12.03912831788044
N         2.84270739548619    3.30436460133751   12.57413609110760
C         2.97710142355826    3.64469506472288   13.81728610162218
H         3.82054425350862    3.22080201943850   14.36092375334503
C         2.11703696150404    4.52947657405868   14.53499522692714
C         0.96471307342753    5.16095307347057   13.96812367569920
C         0.21094408156854    6.01333529594629   14.81346100994022
H        -0.65850039412326    6.48752356398462   14.38288053280111
C         0.54870091961464    6.24297489681766   16.11974794837948
H        -0.04705044112678    6.89871185087386   16.73602851467512
C         1.67663617205140    5.61748265071878   16.64831816577823
C         2.44223826743233    4.78179603078165   15.87912587801625
H         3.31330353364710    4.30403045362642   16.30310772167581
O         0.54418883002171    5.02279799317618   12.75283250966636
Br        2.15408402350206    5.93461182877969   18.46959608229558
C         3.73599642250257    0.83381234234950    5.01928015171502
H         3.35474742245939    1.25901185389645    4.10492115182945

