57
CSD_code = ZIMXAW | q = 0 | S = 0 | Stoichiometry = C27H25ClNOPPt | MND = 4
Pt        3.20093353657518   18.61212851855744    2.60554950189537
Cl        4.14285642400014   19.83292651208449    4.38994588726345
P         3.65491808879144   16.73762937602462    3.76972944474687
O         5.09617279368638   21.56135079631829    0.06205053517436
H         4.75084184182305   22.36172692608453   -0.34936305260841
N         2.85384879868946   20.26137479960554    1.47674433905351
C         2.29364658327324   17.73198137004919    1.03106554267139
C         1.90368633934405   18.67903438874919    0.05471603613719
C         1.23910537241877   18.30535474162088   -1.11294495908494
H         0.95798377613968   19.05745660583012   -1.83730267261069
C         0.94746515807465   16.97489088793529   -1.33251033611305
H         0.43527480634034   16.67039088999799   -2.23345689145463
C         1.31453942665325   16.02907530660558   -0.38543458128847
H         1.08346047318633   14.98657753983082   -0.55450209261149
C         1.97280146905426   16.40359641420833    0.77609859571908
H         2.23592598035429   15.63328189462675    1.49084721474279
C         2.26376740644504   20.03614389043527    0.36034823642427
H         2.04728420361024   20.84349308253277   -0.34036073573550
C         3.35781107135052   21.56743628512596    1.78914650990187
H         3.25058572949297   21.74338506401530    2.86199038042072
H         2.82257550702338   22.34352630222937    1.22273305672456
C         4.85817476972790   21.61357371444629    1.44525683290878
H         5.30149071400228   22.51194243410247    1.89309514647950
H         5.34579791066792   20.73150513698022    1.87074773519697
C         4.55007017656241   15.57070346129024    2.69472611412274
C         5.33756502561102   16.16913765116809    1.71368849668752
H         5.34546206291030   17.25701849719519    1.64388593602532
C         6.07592271404064   15.39313133974952    0.84171088285991
H         6.68546616269485   15.86013818642078    0.08260492771399
C         6.02365138329700   14.01099351327637    0.93955426356200
H         6.59444011611429   13.39974567728231    0.25625642438155
C         5.23340822559842   13.41208391655554    1.90628245249822
H         5.18708314085310   12.33489059174318    1.97374194134786
C         4.49744337371257   14.18699570569946    2.78696114297106
H         3.87196018973107   13.71429864746214    3.52998809591902
C         2.21984247913296   15.85226757286030    4.44695869474039
C         0.95430575043800   16.28622241583790    4.06761566152180
H         0.87542052072877   17.13008110703639    3.38881415931208
C        -0.17348406384826   15.65618508009249    4.56162127010302
H        -1.15540444339119   15.99582462708966    4.26721313518920
C        -0.04136849262255   14.59288235121908    5.44003870835467
H        -0.92060023942406   14.09881561066118    5.82651828700860
C         1.21777374135807   14.17120114788939    5.83782471520052
H         1.31744972401335   13.35288623672433    6.53610218187295
C         2.34838323943391   14.80121552901847    5.35026248528915
H         3.33012100208970   14.49385510947940    5.68497271651914
C         4.73922634380895   16.82975088494956    5.22803887673035
C         4.18967483529244   17.28241310965903    6.42493859091878
H         3.13748227831390   17.53072102097348    6.46563502824883
C         4.98850291135259   17.42994540417202    7.54149710175114
H         4.56039877319834   17.78749212766006    8.46645700156888
C         6.34067967353074   17.13215845804740    7.47123837969456
H         6.96576986868971   17.25259949700229    8.34388463081836
C         6.89206260979828   16.69186810289975    6.28040215001181
H         7.94764402853175   16.46899081138040    6.22207984676418
C         6.09708239207403   16.54456095821790    5.15687802378171
H         6.53151631564898   16.21244277129705    4.22401800255263

