75
CSD_code = ZIMYAV | q = 0 | S = 0 | Stoichiometry = C32H40O2Zr | MND = 12
Zr       -3.15931036478939    9.30145463878137   12.46354976505397
C        -4.97541615538246    9.40711358209176   10.51374365516541
C        -5.59906621839596    9.26066485433800   11.77882554547735
C        -5.20439229596323    8.00367458132937   12.32579852852807
C        -4.33701711627806    7.36448550688745   11.38176473696871
C        -4.17990101975146    8.25931357140486   10.28558238347767
C        -5.31070064818800   10.40100487826456    9.43642340320937
C        -6.65409859725769   10.14888610894188   12.38060248657017
C        -5.78539858916893    7.42743066574517   13.59137067902444
C        -4.13616912877792    5.87739373486643   11.22726406210302
C        -3.45366834350416    7.97598051257880    9.00041196957416
O        -4.01437727250171   10.36396437246685   13.82757878630984
C        -3.76848242040239   11.58207637477737   14.29151576963694
C        -4.61622352790111   12.16541990579779   15.24367071998610
C        -4.37711041798207   13.44216046260066   15.71298245167948
C        -3.29685083117005   14.17309729603223   15.24874144066993
C        -2.44533265348357   13.60773363714612   14.31209655949160
C        -2.66725184200008   12.33028467610298   13.83791470257791
H        -4.42102010021286   10.72887460807163    8.90037221228182
H        -5.81538444862634   11.27935522942840    9.83044211240610
H        -5.97861741265590    9.92855622013360    8.71057315735868
H        -6.73684253754942   11.08866135335888   11.83701053011816
H        -6.43165241721767   10.37261297845781   13.42513685207247
H        -7.62773607487080    9.65398775327857   12.34383632059061
H        -5.33280156768680    6.46852354040445   13.83896022363762
H        -6.86075685539365    7.26700303807523   13.47556609331933
H        -5.64039309368226    8.11073602822270   14.43278311282585
H        -4.40395382693054    5.33609394121318   12.12953977529321
H        -3.11871234932966    5.61245601031590   10.94484176996365
H        -4.79368558158078    5.52146107347689   10.42899419563612
H        -2.84475006894951    7.07803668736182    9.08012835871004
H        -2.80780209057214    8.81305161063228    8.72809048016402
H        -4.16557715505940    7.83047801635627    8.18426497511721
H        -5.46124402186575   11.59471619548060   15.60463040571173
H        -5.04439361959009   13.87144341851972   16.44659598156795
H        -3.11840176142284   15.17276673727914   15.61443090137967
H        -1.59804444988096   14.17045313622210   13.94655180622008
H        -1.99189655535786   11.87909361723387   13.11448320193714
C        -1.35400062635793    9.39437753406538   14.40931288198403
C        -0.72479746809264    9.24945736686363   13.14648845887995
C        -1.11605324113079    7.99212067532965   12.59751409912569
C         0.33342952956495   10.13795576893366   12.55052849511219
H         0.42294649945771   11.07122334409139   13.10394747103208
H         0.11038079692412   10.37350795042899   11.50867634263441
H         1.30444208182997    9.63692983430938   12.58006654615305
C        -1.98453989079788    7.35064525035511   13.53809290277672
C        -2.14831504784012    8.24452238733399   14.63391406976477
C        -1.02576887292131   10.38800445564614   15.48909349801072
H        -1.91960210186862   10.72066962964781   16.01528085549542
H        -0.51319448624065   11.26371753758296   15.09932944184119
H        -0.36804568816590    9.91342344436731   16.22255231003740
C        -2.18328450482687    5.86309820026770   13.69032418516749
H        -1.91783576483349    5.32331058044999   12.78646479722074
H        -3.19953157058597    5.59667911945075   13.97569834500689
H        -1.52279918907280    5.50649933858463   14.48587243209737
C        -2.87574433759672    7.95798667051089   15.91774949241363
H        -3.48733374042244    7.06221305213847   15.83441606438882
H        -3.51881795185432    8.79599364648604   16.19378056098638
H        -2.16444188952215    7.80658269294389   16.73340616249628
O        -2.30077336625261   10.35972234866157   11.09840647786651
C        -2.55150714292119   11.57520652783724   10.63040864791354
C        -1.71093571073828   12.15584397589190    9.67001147629459
C        -1.95629923251969   13.42940113512511    9.19544971648086
C        -3.03539695843519   14.16017550638418    9.66277259804466
C        -3.87988717841164   13.59739778625796   10.60725015965699
C        -3.65213051455204   12.32282435329937   11.08618661133911
H        -4.32294078156934   11.87337509877960   11.81460042450197
H        -4.72559303499244   14.16021921395400   10.97626218382830
H        -3.21842405621193   15.15752100320793    9.29364345059122
H        -1.29460828950842   13.85638535073928    8.45560230677088
H        -0.86683074693478   11.58540083894978    9.30652884282594
C        -0.52837186124848    7.41639698705352   11.33491275899597
H        -0.99057593717960    6.46533381393579   11.07535174725001
H         0.54325593432740    7.24060002744773   11.46153864180070
H        -0.65514022713274    8.10707699912196   10.49699443141562

