75
CSD_code = ZIMYID | q = 0 | S = 0 | Stoichiometry = C32H40Se2Zr | MND = 12
Zr        0.05770552554805    7.85559045020164    7.99765226208883
Se        0.67394158396466    5.72131671021364    9.45921439105464
Se        1.97387088048260    8.52245196927091    6.27973302423617
C        -1.08157870161072    9.57073506223364    9.45051163145191
C        -0.08816731117717   10.22565193942630    8.65629327901556
C         1.19620501523208    9.84400207267852    9.15099934871477
C         1.00263727871251    8.92730030352952   10.21494979775750
C        -0.39628885853800    8.73402790072032   10.37841236772683
C        -2.15354063010830    6.85218047006797    7.57891924942464
C        -2.19171871107179    8.10504030451562    6.88937133394527
C        -1.27885107537684    8.01492567231744    5.79887581895025
C        -0.74164891013549    6.69912966211004    5.76558137706462
C        -1.27632355441041    5.98042030401770    6.86437687820291
C        -2.47481304312292   10.07587034738229    9.71873403279679
C        -0.28970012543725   11.30014295206030    7.62279783062574
C         2.47832260897410   10.55824109385884    8.82793570269811
C         2.03437446739530    8.46847828207101   11.20476539896970
C        -1.02114309225842    7.99570759505334   11.52628046728165
C        -3.02061291920905    6.39746176059785    8.72115854457671
C        -3.34330461915302    9.07558336084187    6.88002134893386
C        -1.11969898177474    9.02331455727686    4.69844582888121
C         0.00476077292369    6.12676727842186    4.59511733100980
C        -1.22005802485320    4.49039373230683    7.05148600540482
C         1.98433581769898    4.72886863808064    8.46906891625106
C         2.20150277880159    5.02366604099529    7.13203980361367
C         3.17507219711707    4.34339350096400    6.42505899618329
C         3.93217390246113    3.36762021942458    7.05076965999915
C         3.70505324163690    3.06868810120980    8.38430738117813
C         2.73260578982436    3.74430332143841    9.09728770127936
C         3.61490898966212    7.80646696920539    6.97008075597657
C         3.66840640173677    7.35442966550625    8.27945494029092
C         4.83477293549640    6.79818388337529    8.76996862268100
C         5.94920009164383    6.69321619059632    7.95517056206253
C         5.89478143046315    7.15512358807866    6.65019900887140
C         4.73206626768919    7.71330377882527    6.15321848742751
H        -2.46227967152698   10.61109138094425   10.67229955925757
H        -2.80757343859448   10.77756277494644    8.96013191394660
H        -3.20897885595058    9.27764611569532    9.81211787398551
H         0.09089608688029   12.25483216798532    7.99269222184032
H         0.25191271545138   11.06521302315392    6.69945759205329
H        -1.34266088933389   11.43487403633454    7.38188515188670
H         2.61464681761458   11.38671673114321    9.52797038645337
H         3.34750132930036    9.90570352296977    8.91184667737524
H         2.46041091386807   10.97301650443317    7.82110119095793
H         1.83837729021810    8.93912546777272   12.17056633663044
H         1.99995431886692    7.38754173702131   11.35949636462124
H         3.03796617731779    8.74860995237487   10.89225118646926
H        -0.86798451629668    8.55070829665655   12.45490572948520
H        -2.09222654563551    7.86912444102244   11.38210191200274
H        -0.56648272678236    7.00996011312082   11.65762305232908
H        -3.71444711657868    5.62454811277687    8.38305828402613
H        -2.41606725678699    5.96731881371633    9.52775765684878
H        -3.61075648150893    7.21596262084853    9.12946572100825
H        -3.94113420489632    8.88170878674404    5.98511054743796
H        -3.99541979721878    8.94304594789959    7.73780349057624
H        -3.02625268134223   10.11574028404691    6.83096533697167
H        -1.66426532016525    8.69532047337923    3.80979977681694
H        -1.50804011924653    9.99662323146015    4.99153823231166
H        -0.07005826104538    9.13627630252687    4.41359358804523
H        -0.64130960364739    6.14487261262405    3.71481508036204
H         0.89591721507697    6.71073827607572    4.35354729991504
H         0.29724426981681    5.09472057815322    4.77584588426616
H        -1.97155614370719    4.01912737498554    6.41261478781043
H        -0.24817610473015    4.07635154180679    6.78246292295320
H        -1.43585902331354    4.20993401248969    8.08145070159582
H         1.60556706099420    5.79508372491435    6.64921027731658
H         3.34622318537507    4.58621844655878    5.38638103849535
H         4.69794917006592    2.84213595824607    6.50015869815513
H         4.29246738253592    2.30616626722941    8.87493844630857
H         2.54895386260298    3.52368986145413   10.13884988474609
H         2.78685278109633    7.43623018628063    8.91154346935928
H         4.86571196277101    6.43816685384339    9.78807433741344
H         6.85755955403319    6.25144231763156    8.33650325797441
H         6.76324102696521    7.07663699654551    6.01240039197831
H         4.67552621793605    8.07321647381107    5.13610565095918

