63
CSD_code = ZINPUJ | q = 0 | S = 0 | Stoichiometry = C32H23CdI2N5 | MND = 5
Cd       -3.03295934034904    4.00588586347731   10.77573091516136
I        -3.19810674903304    4.80830386907560   13.35497849936461
I        -4.45408168597237    2.47608903874298    9.09085959976844
N        -0.95168288951599    5.21325861847399   10.47960018137755
C        -4.40408878848980    6.55530293482523    8.96239385279535
H        -5.20717706479746    5.82878683207281    8.91221661968501
C        -1.03649935475147    1.24283814611422   10.96083310371362
H        -1.99890132954653    0.77318677066493   10.79166656292470
N        -3.31655379852998    6.17906108488483    9.61487807438545
C        -2.28745079623071    7.02485784351506    9.71077475642205
C         0.94932939657258    5.47062686544260   11.88752114771146
H         1.74097444269322    5.01931227202139   12.46356214403425
C         1.69775685340224    7.72091936819212   12.64506790266406
C         0.79528554209612    6.85632704925583   11.88161721688744
N        -1.02630930881417    2.56551181978087   10.96955835348256
C         0.12679956384647    3.20885196614569   11.17024572021035
C        -4.53055578315643    7.80054774448610    8.36474318311239
H        -5.43681393124152    8.06620125147145    7.84500707045083
C        -3.46482854976295    8.68167837986216    8.44961732073248
H        -3.51772201964317    9.65748385272342    7.99013410851807
C        -1.11309472025698    6.53433886793129   10.45876381238453
C        -2.32447183780924    8.29079801879153    9.13051766064737
H        -1.47171224000810    8.94807472475826    9.19366570184747
C         2.13092450103624    7.35056615988296   13.91821664882661
H         1.76845356129107    6.43293683786133   14.35728795505762
C         0.05379997690620    4.68340518959970   11.17278970454790
C         2.13727566382473    8.93475175928702   12.11829407813068
H         1.82734725016633    9.23222527420295   11.12683249249880
C         2.97610972669115    8.16431958671102   14.64016097404498
H         3.27343713465244    7.85920590685995   15.63098868998598
C        -0.25606230804189    7.39187241811855   11.13907088817948
H        -0.43809014793641    8.45447407381613   11.15245176105336
C         3.43509460925880    9.37604050302826   14.11362251836129
C         1.32432084997111    2.52179920145747   11.35715039291231
H         2.25082904748526    3.05867880804612   11.48615456083735
C         1.30961109791770    1.13731446077461   11.34837150072735
H         2.22485131753760    0.58193823220012   11.48992671148775
C         0.10617598511855    0.47995343034053   11.15105611272964
H         0.05121569553493   -0.59655099789945   11.13926681692755
C         4.33322397046656   10.26674529313131   14.81944005316614
H         4.49809193512743   11.21530557794760   14.32598118637473
C         4.96648342325533   10.00448831805968   15.97309167765997
H         4.82824691846458    9.04230257919122   16.44806544246810
C         2.99130940547081    9.74120862094987   12.83761374483598
H         3.33018340650493   10.67311387390160   12.40776847433431
C         5.87256159378626   10.89019300815568   16.67528705515020
C         6.09639564479028   12.21933005838940   16.30295807374971
H         5.57735864032841   12.63809295508899   15.45538841600388
C         6.56311396771287   10.40247165739803   17.78984239655605
H         6.40343990669844    9.38146827210904   18.10535887979063
C         7.65836763373746   12.51474038998530   18.10772177101788
C         7.44161652400167   11.19486288172157   18.49631920454017
H         7.95047365659060   10.79872323730691   19.36187188823461
C         6.97370896784761   13.01821622499219   17.00306978399913
H         7.14386384103654   14.03661607502306   16.68841695442856
N         8.54426414164572   13.32819918639660   18.81811086979235
C         9.68118628845262   12.93366417169752   19.47872453639981
H        10.02483760251774   11.92031126068938   19.47288112825465
C         8.45071234246601   14.67435636549870   19.01520242236882
H         7.63838236871429   15.26507180169862   18.64257696151456
C        10.21256929496458   14.06217589944926   20.02610137458516
H        11.10388304811031   14.17282990948891   20.60986072480456
N         9.42749590520404   15.13543835474798   19.73675166538017

