42
CSD_code = ZINVIE | q = 0 | S = 0 | Stoichiometry = C10H24ClN2O3PPd | MND = 4
Pd       -0.00013671067519    1.50788229541401    5.95190468662405
Cl       -1.64196965249980    1.30117376267147    4.29579295256756
P         1.39001938705113    1.71032609393957    7.67241907424531
O         0.89961879120018    3.24718694400615    8.13235849395447
O         2.91630601109286    2.10885805882736    7.24634580119852
O         1.38004526480086    0.84161519357998    8.85990092936308
N        -1.48101595916225    1.65387444595494    7.34625652601281
H        -2.32670008933886    1.46416175638988    6.79412350063347
H        -1.39043218438190    0.96204349378587    8.09637426256862
N         1.48684995164548    1.41864774043132    4.54752118455568
H         1.86082005825755    0.46751562316529    4.46934351476933
H         0.98172565625036    1.63448086940344    3.68077305540593
C        -1.52536431126444    3.01146405655880    7.90369997348176
H        -1.43111945918472    3.71334563603506    7.05485836568707
C        -0.31365891248655    3.23930538282791    8.83036207273372
H        -0.40462258872149    4.21786793304698    9.31172821391167
H        -0.28113619443373    2.45955847752144    9.60269713483825
C        -2.86088255261080    3.29828792613754    8.62607361615643
H        -2.74427613591067    4.25411731232749    9.14699020043430
C        -3.99574488359451    3.44654336434470    7.61169437407529
H        -4.17222679538788    2.51925284266436    7.07020242375284
H        -3.76757668437357    4.22498333734266    6.88763303715604
H        -4.91850263807189    3.71359208258795    8.12035205136302
C        -3.21011593249378    2.22606815610318    9.65833737405070
H        -4.08576311138806    2.53623328397840   10.22293553321304
H        -2.39502050007514    2.07299302495023   10.36038934630021
H        -3.44718541695620    1.27834500486731    9.17935136570175
C         2.57287624913432    2.38144432542030    4.78441316809896
H         3.22930214313414    2.40339047872403    3.89856575457524
C         3.44398334446535    1.89485888866083    5.96478973129660
H         3.65886785241167    0.82432958428486    5.82467894253611
H         4.39717404143764    2.43287908044845    5.95168407607871
C         2.03434216892992    3.80632127471727    5.05002796685973
H         1.76596331331362    3.87288149230071    6.11041372966240
C         3.13390447517091    4.82855159827615    4.76385154146892
H         4.01765166979654    4.63282020319974    5.36403338000656
H         2.78140309269602    5.82785521095398    5.00358194219468
H         3.41404378558330    4.80871380899447    3.71185254054625
C         0.78832297663343    4.14120436303414    4.22328795640101
H         0.97181240363569    3.99992948875216    3.15825118619322
H         0.53069919062911    5.18594635363771    4.37969584136337
H        -0.07978111424215    3.53864974972387    4.53145317795763

