57
CSD_code = ZINXID | q = 0 | S = 0 | Stoichiometry = C22H32PRhS | MND = 8
Rh        2.53603268388338   -0.06950856821018   -8.10266473429752
P         2.13133882785476    0.38442456277333  -10.28733150928761
S         0.51024993895906   -1.25071600823374   -8.14845927581469
C         1.46558726216044    1.55936421104221   -7.52023714388652
C         0.45724909833018    1.53764928785637   -6.64643818227803
C        -0.24414836908329    0.40446718210688   -6.06346309767738
C        -0.26759668805812   -0.87870214985954   -6.63311192962878
C        -0.98109291672929   -1.90166189252440   -6.01323072216254
C        -1.66143075084436   -1.68046417010601   -4.83306095937219
C        -1.64015206999358   -0.42067019096374   -4.25551267163277
C        -0.94525462040538    0.60054955524285   -4.87281674076354
C         2.03177853351596    2.88253840991561   -7.96862597926069
C         3.74001370857713   -1.86584228927417   -7.31401395697760
C         4.57533806890587   -1.15288342087996   -8.18880495863862
C         4.74517687028651    0.19161147017194   -7.65861153054587
C         4.03783800569485    0.26965360546195   -6.43241086913279
C         4.11040506463935    1.36034660450396   -5.40875093685311
C         2.62298692851366   -1.38355828321958   -5.00939325216527
C         3.32054200321524   -0.95891572943377   -6.26606658274709
C         3.38095519415007   -3.31806400663971   -7.35879920027821
C         5.39699625745686   -1.71700980469425   -9.30892150756280
C         5.77684043939257    1.16252878078790   -8.14878245054766
C         2.18267681917696   -1.14210399635465  -11.30295096408454
C         3.24373306918917    1.47323193635413  -11.27050486741663
C         0.48313144936228    1.01373251090883  -10.77626007732493
H         0.09706963107989    2.49336987977142   -6.26609691916937
H        -0.99599819937412   -2.87573264659847   -6.48089192025431
H        -2.20605097246756   -2.48769957774697   -4.36482451040037
H        -2.16810683215033   -0.23488705634268   -3.33126932053306
H        -0.93781999479454    1.58573495699732   -4.42477363679621
H         1.66716418768684    3.69372049172326   -7.33630230376695
H         1.73266688371240    3.09537511298237   -8.99609661170583
H         3.12166149008005    2.88154782269253   -7.93701627844146
H         4.77860141959368    1.05081336472556   -4.60245953716810
H         3.13086297069519    1.56021948726475   -4.97861072385004
H         4.49579905105240    2.28398642121561   -5.83363623519909
H         3.35885628099151   -1.75470014928090   -4.29196484869315
H         1.90668866856581   -2.17766892761097   -5.20775524449433
H         2.08976995803429   -0.55157624470998   -4.55376282135635
H         3.79556231957505   -3.82611784552232   -6.48661598420855
H         3.77130709715990   -3.79325718675095   -8.25546966313401
H         2.29856710309758   -3.44873629887853   -7.34490895620692
H         6.39407547737738   -1.96438525635681   -8.93712599317742
H         5.51399162301756   -0.99984880173907  -10.12001435864588
H         4.95043595084179   -2.62400776572292   -9.71052278525014
H         6.75871098130751    0.87766198405034   -7.76348123141238
H         5.56396666177333    2.17446699833356   -7.81040413215229
H         5.83326566337201    1.17015174585563   -9.23550539154792
H         1.92545666324862   -0.92477960469865  -12.33902285210573
H         1.46611929670384   -1.84657877049834  -10.88305573911169
H         3.17667791604237   -1.58205999696332  -11.25754514873487
H         2.90279615190924    1.52205803526343  -12.30376599234382
H         4.25398469695757    1.06972150197143  -11.24561094969744
H         3.25883904727915    2.47372427009585  -10.84490012066805
H         0.40453506154366    1.05716969437969  -11.86199640796372
H         0.30725287526542    1.99955139901661  -10.35410909173546
H        -0.26300393731903    0.33016535629470  -10.37556018980015

