93
CSD_code = ZINZAX | q = 0 | S = 0 | Stoichiometry = C38H51NP2Zr | MND = 12
Zr        7.39200530280623    3.83531596231322    3.62260261770766
P         9.63142942396905    3.83520081597341   -0.42615845264370
P         4.87302905787347    3.09351861158938    3.07275941441618
N         8.10016639831790    4.11464386486840    1.83987561974773
C         7.30212922653432    1.29931379318327    4.11623096815401
C         7.51568392039554    1.92447917920490    5.36353603819636
C         8.76745154934900    2.56666033558206    5.31672495369486
C         9.32468753831090    2.36092547104844    4.03332453385643
C         8.41594128701215    1.56565398043160    3.29463678626775
C         5.94967768614596    5.54661629786839    4.83564819925384
C         6.58751049832099    6.19286922076905    3.75204218341666
C         7.97681915191499    6.21695622646052    4.01694934957498
C         8.19082058772205    5.57675574808682    5.25844069213604
C         6.93852756047666    5.16423967121272    5.76190915928917
C         8.17334909903549    3.72501726222330    0.62759261095699
C         6.97661426414669    3.29194050749346   -0.13416911415154
C         7.00500665091737    2.19680332559274   -0.99193251059960
C         5.88208132054755    1.85909894751100   -1.72559971363738
C         4.73211230623584    2.62571408141639   -1.62967172909844
C         4.70336151890509    3.72795912781504   -0.78973147944257
C         5.81351304421218    4.05328109549488   -0.03192855991563
C        10.76669581294221    4.50462400622599    0.85991100655710
C        10.62315478446554    5.83741037911592    1.29543756839026
C        11.20022624298473    6.19466427902000    2.50879062268035
C        11.97341002598608    5.31911675211033    3.25221528552362
C        12.27247765974195    4.09057454008120    2.68082708293296
C        11.70850148171270    3.66452474654146    1.48754221910909
C        10.02089367647829    6.93685829641541    0.40925864912852
C        10.27769672355183    8.34258884136502    0.97627517911732
C        10.72996089143653    6.88104516238280   -0.95318301779721
C         8.50435006441496    6.80972457681109    0.20406652591487
C        12.58684654042129    5.69080993169617    4.59430352438596
C        12.06939141747149    7.02924296096116    5.13065939681377
C        12.25264510337242    4.60205215426873    5.62350357283930
C        14.11024651746716    5.79588051277739    4.43282635774691
C        12.20874698529633    2.36309068134713    0.85206979180317
C        12.62071336479945    2.65301769695824   -0.59852975614317
C        13.45583967087028    1.80446157666735    1.55470082119008
C        11.14431446802354    1.26242993336786    0.88988405756137
C         3.78806686429615    4.39799370760244    2.79862645211787
C         4.62427381078120    1.60560800462470    1.95068328726121
C         4.12750953681741    2.41753658567166    4.64161569861320
H         7.91251903862806    1.61441136170525   -1.07999481361229
H         5.90622683710758    1.00189382336470   -2.38283635518309
H         3.86181319862614    2.37051145219336   -2.21629883664880
H         3.81162157178789    4.33649424278857   -0.73505363632192
H         5.82173379050162    4.92439210801877    0.61662412012800
H         6.52158116154273    0.58664262259155    3.88578626214977
H         6.90381143184652    1.80142082883226    6.24930445343036
H         9.27808925181584    3.00127265630686    6.16754380921190
H        10.31738111750452    2.65654976959991    3.71418658130335
H         8.58383859182420    1.14308049254747    2.31182580467548
H         4.87879861353548    5.50032979812437    4.98226248094718
H         6.07984438359636    6.69888809584626    2.93841094912868
H         8.72880091266526    6.74128695946072    3.44278752733943
H         9.12824930095270    5.56078984919055    5.80099423143998
H         6.75760171968062    4.75493945086305    6.74913360601210
H        11.80181476739101    7.02190613523094   -0.82688728006082
H        10.56476302128836    5.92147235156901   -1.44034575866108
H        10.34913833423068    7.66382294974625   -1.60606805349496
H         8.09940507368928    7.75527432849191   -0.15273715887567
H         8.27141618922373    6.04782546236269   -0.53769909675126
H         8.00863577985226    6.54096675208627    1.13704518380711
H         9.71219923720198    8.52066006254585    1.88860375908215
H        11.33569864291446    8.50828447003181    1.16666600129649
H         9.95524135275814    9.08036991055965    0.24368516658591
H        11.17500933769575    4.46396390258809    5.68162476168735
H        12.70182940903496    3.64914939271877    5.35786246616161
H        12.62270491290924    4.88529575313335    6.60710701302239
H        14.57122523726642    6.07356573858966    5.37872643295799
H        14.53783165002244    4.85086315463744    4.10858506327384
H        14.35836765310025    6.55280381139673    3.69168202482834
H        12.38112573701278    7.85406367084191    4.49429400091410
H        10.98440192114259    7.03112512972506    5.20503563222397
H        12.47840761959555    7.20607818135568    6.12387561415016
H        14.25444343787222    2.54215263267648    1.58842999754169
H        13.23457426177012    1.46395730157937    2.56401964779691
H        13.81830695856692    0.94432252173544    0.99478691773211
H        11.49485907415737    0.38629246005689    0.34732939166888
H        10.93592492349393    0.97341946933995    1.91751098866063
H        10.22134230690462    1.60851297290545    0.42577335338780
H        11.76650652727921    2.95576577313630   -1.19951854978384
H        13.36010554343141    3.45107246926310   -0.62450073348589
H        13.05430524893330    1.76314160760608   -1.05074644117077
H         3.68473238766140    4.62309354620900    1.73087093786938
H         3.72374374300367    1.76365357926056    1.35791723724285
H         5.47416993414162    1.49218821373933    1.27871890178573
H         4.50099942594827    0.70224781207461    2.54526470636231
H         4.16469882393499    3.19283805747640    5.40597163666641
H         3.08096576644130    2.18458536038448    4.44312686413796
H         4.63480437120462    1.52347475642681    4.99857753624928
H        11.06254796061591    7.19259909663962    2.88107992018699
H        12.96716347011648    3.44896884829486    3.19398983805007

