100
CSD_code = ZINZEB | q = 0 | S = 0 | Stoichiometry = C41H55N2PZr | MND = 12
Zr        1.82634265659252    0.41460797860474    1.60855792954627
P        -0.12234130326424   -3.46345796770781    0.90637887595965
N         1.70539771161022   -1.30184390687267    0.47849067763219
N         0.34838430301896   -1.06181194460096    2.14370744797272
C         2.96482619361842    1.47661217161236    3.59534811680115
C         3.97201665909100    1.18356031195360    2.65105096890005
C         4.07204330247441   -0.22480938865957    2.54839064888583
C         3.11661424867432   -0.79723406016480    3.41213019629093
C         2.42716815779214    0.25676799505586    4.05645886971132
C         1.34963117651654    2.92284557304264    1.49519632588261
C         1.75350344370486    2.50424020650038    0.21417371114097
C         0.78159860813959    1.60179649751199   -0.27865362748355
C        -0.22432784665565    1.46545199645537    0.70490794284952
C         0.13778115283718    2.27131045354038    1.81214186305051
C         2.73286543041347   -1.29876822265048   -0.31781689856144
C         3.49816540840320   -0.10346321688375   -0.26190002807725
C         3.89313462541121    0.83516479824006   -1.21284699147211
C         4.80424000295585   -0.34195586527432   -1.03322636933302
C         4.52858357019453   -1.52892278655625   -1.95273034213556
C         3.32547221407555   -2.26610493412824   -1.31762250993169
C         0.68426443568887   -1.94679359596466    1.15102684737317
C        -0.70659488005802   -1.45168768930818    3.05821330394110
C        -0.18538118935322   -2.40882167487639    4.14379404243544
C        -1.29672347033156   -2.80117313590089    5.10939251926570
C        -1.89291509098224   -1.55995997992808    5.76463725221354
C        -2.43205695103074   -0.61391302774714    4.69708913111687
C        -1.33656539616799   -0.21696172848725    3.70954042415161
C         0.72642002045062   -4.14592872804031   -0.59118226672222
C         0.26487922855205   -3.83203137523688   -1.88806124919054
C         0.97104929828800   -4.32631148752443   -2.98088416688434
C         2.07197351869421   -5.15158635434811   -2.85092724625162
C         2.43446444165662   -5.52991530119049   -1.56838444133847
C         1.78984495106980   -5.06624614568423   -0.43071095333260
C        -0.98644446245823   -2.99060225901429   -2.18613671462899
C        -0.79939192491577   -1.53500353529534   -1.72946590355727
C        -2.21303561909277   -3.62202683196980   -1.51398164048771
C        -1.32185394463723   -2.92550357138301   -3.68660576949573
C         2.87401209581214   -5.66179083426213   -4.03839052937377
C         2.34857039245388   -5.14055217094653   -5.37891261733269
C         2.81347170236818   -7.19532678154521   -4.06654408080506
C         4.33103776931518   -5.20061825737824   -3.88903058569320
C         2.26645776046362   -5.61865105365411    0.92279042612179
C         3.37158285569329   -6.68084001265669    0.78586408020797
C         1.10105068472197   -6.32460765545853    1.63055916566841
C         2.85867083115067   -4.51346752872252    1.81011775492125
H         2.75014597622330    2.45155190979934    4.01553159841892
H         4.64420645269750    1.89960304741448    2.19156766628887
H         4.84651830691113   -0.76878176474953    2.02066319863785
H         3.01739537729599   -1.85310799657657    3.63279780526592
H         1.74224142712128    0.15163954645321    4.88845733002956
H         1.80659886972485    3.72054285872162    2.06689695263398
H         2.58191033533827    2.90144717911198   -0.35710535895501
H         0.75127691139989    1.20195908450734   -1.28492948549106
H        -1.16432364995277    0.94204695716715    0.57527139925544
H        -0.48536298448739    2.49333226625928    2.67025999874430
H         5.75054947314143   -0.30626674056534   -0.50596096214058
H         4.26247334329492   -1.18075797058856   -2.95470294312049
H         5.39648289965892   -2.18179509569284   -2.03796681272636
H         3.66108697638981   -3.16496689907507   -0.79712839012066
H         2.57618483366768   -2.57578299888543   -2.04775209529487
H        -1.49011449757927   -1.98611444978533    2.48551662090275
H         0.22028551178797   -3.30120663705359    3.66193525115639
H         0.62335814095585   -1.91854318697389    4.69021426117876
H        -2.07713569295831   -3.33510049787068    4.56336532461581
H        -0.90099733279831   -3.47442407015383    5.87273185148305
H        -2.69608941175156   -1.84564157155122    6.44677329298575
H        -1.12299615295788   -1.05098819707461    6.34968973757706
H        -3.23955974917422   -1.11072963158447    4.15457263485910
H        -2.84625310983076    0.28197888295628    5.16528166940129
H        -0.55267182380541    0.34831243248538    4.22714956322511
H        -1.76635577392727    0.41871081312112    2.93237755628926
H         0.65823538684184   -4.05623991059707   -3.97000116874257
H         3.26160447621965   -6.20776171904023   -1.46864573967139
H        -0.82496000051557   -1.44567367568348   -0.64611156562066
H         0.15535659370053   -1.14884312270830   -2.08644378108006
H        -1.59565157057107   -0.91434611966019   -2.13648398438772
H        -3.10180253934537   -3.03312737130968   -1.73174626574651
H        -2.36261451870468   -4.63210663520907   -1.89028438962615
H        -2.09645567821108   -3.67469603690979   -0.43439178270982
H        -2.25919487611693   -2.38522077325878   -3.80803562277851
H        -0.56180835881980   -2.38788970450722   -4.24960828089926
H        -1.45879297486770   -3.91735302258879   -4.11126917345585
H         2.38380883787403   -4.05408857324566   -5.41850497663051
H         2.97037329546800   -5.52477202511165   -6.18522549378531
H         1.32824864689868   -5.47252289700036   -5.55677940699384
H         1.78025857514823   -7.52883207727253   -4.13892159785481
H         3.36109549423082   -7.57686375105191   -4.92594382405561
H         3.24773321655643   -7.62675472984604   -3.16893266942650
H         4.77850529201707   -5.58852946364334   -2.97802962647868
H         4.92333732807339   -5.54880839594830   -4.73276691048917
H         4.38004428517707   -4.11410221674453   -3.85745975691515
H         3.61995385906871   -7.05056443447048    1.77926675222916
H         3.04034521651471   -7.53042452978546    0.19322226718853
H         4.28302056256006   -6.26965119974118    0.35618894733106
H         0.28679790686346   -5.63906431225946    1.84812965281188
H         0.71548829090569   -7.12189432544293    0.99825639222329
H         1.44112899114767   -6.75846893172412    2.56894112729906
H         3.17493755179063   -4.93731223698626    2.76183620268191
H         3.72940365932463   -4.06786399550101    1.33007943244162
H         2.13696162158117   -3.72560605508224    2.01081398814442

