40
CSD_code = ZIPDAF | q = 0 | S = 0 | Stoichiometry = C12H22Cl2PdS3 | MND = 4
Pd        2.16684853587224    0.64184061509095    3.80349906041814
Cl        2.30159608066492    2.38699475426137    2.40234370809019
Cl        2.68459672702029   -0.71556476643399    2.08902738340788
S         1.43196304353904    2.07459378937009    5.50942544945078
S         6.31325252515217   -1.15779043224451    5.31194101971561
S         1.92627869272633   -1.19330933150614    5.29205177908761
C         2.65653818234746    3.42828095706195    5.60120602030206
H         2.58188241995305    3.85315909973296    4.59628596184486
H         2.26861652293321    4.14250738389727    6.32900998137714
C         4.11378649358506    3.08789870161468    5.91144288552295
H         4.20865163771522    2.81166032883379    6.97002806586728
C         4.96007893077363    4.34301481368891    5.66830993263041
H         4.84230085899555    4.65006445248923    4.62789670499284
H         4.60945457060258    5.15899102482138    6.30326827558543
C         6.43487216477612    4.06555705169503    5.94869728388064
H         7.01694192818076    4.96576802798279    5.74693281070329
H         6.56605553684781    3.81427064393670    7.00411512139203
C         6.94927123634120    2.91457879896385    5.08763987391550
H         7.99955368393946    2.72588955455317    5.31611462186075
H         6.87398821534219    3.18194920308449    4.03224370752330
C         6.12146233246926    1.65605166739928    5.35191932214989
H         6.22377174452247    1.39746445243775    6.41334500641880
C         4.65517324114698    1.95468614209572    5.04106750687120
H         4.07203642360218    1.03701675593148    5.21456880034348
H         4.56199257271004    2.24163198576093    3.98353496228076
C         6.61896887326346    0.46817428565250    4.52743628118158
H         7.70347162133347    0.50483395601108    4.42785618578694
H         6.17175780971097    0.44862247109417    3.53348290435146
C         4.63450541941887   -1.59753931156463    4.73148617643409
H         4.36268020117372   -0.90232393980453    3.92640562696623
H         4.69172341415516   -2.59908041882043    4.30856629170008
C         3.63725695576471   -1.55022115861164    5.87827241172771
H         3.91465883372049   -0.77544670448563    6.59328619373844
H         3.59263832565673   -2.50597978004429    6.40065485205050
C         1.24854535156976   -0.35650959185641    6.78374374728116
H         0.17070252053729   -0.33701855797709    6.61464067780010
H         1.46382225425876   -0.99700045301753    7.63996477261735
C         1.77074073742263    1.05014359227959    7.00664510869696
H         2.84112339268736    1.05583013632578    7.20565718499534
H         1.25033998756740    1.51350980029935    7.84658633903930

