39
CSD_code = ZIPDUX | q = 0 | S = 0 | Stoichiometry = C16H16MoOS5 | MND = 6
Mo        1.21978067965698   13.83294477234108    9.06007715115687
O         0.73476504764903   12.76287134078198    7.91864257461346
S        -0.42124314577206   13.82176756632303   10.80614251119140
S        -0.17632501109260   15.62088863311110    8.07187754295279
S         2.09125404707644   15.85919046519930   10.43917743436339
S         3.30067732913429   14.31256656336217    7.79668148680530
S         2.67230474942207   12.66830802467019   10.57063081762926
C        -1.59679906821579   15.72739572628593    9.15849781996079
C        -2.62770487941438   16.58114577132307    8.79766772634897
C        -3.74231481250706   16.69413842061397    9.60554191949580
C        -3.82206315272605   15.93648486436297   10.76819288640917
C        -2.80355832315204   15.07598199428489   11.11489818658466
C        -1.66682793518947   14.94477412338768   10.30918046907716
C         0.57893857777395   17.24092030160136    8.50515641130177
C         1.06887224719131   17.28988499526345    9.93766411853531
C         4.55708458659863   13.36071662283394    8.64778148039766
C         5.82063294381332   13.30368839394622    8.08027882101167
C         6.82104962509122   12.58008631545583    8.69939367891017
C         6.54375420914613   11.90854656896289    9.88440932225783
C         5.28325012807687   11.95601900493692   10.43839071392975
C         4.25343808766362   12.67670178251152    9.82306620923106
C         3.89863304435577   15.98338798905564    8.28119133876366
C         3.74415931546802   16.25207661990109    9.76378177796929
H        -2.54830491967915   17.14785958789045    7.88126554308921
H        -4.54515691145886   17.35921166503280    9.32811915108774
H        -4.69262167571354   16.01644267288844   11.40185530374828
H        -2.86011730155575   14.47579774910900   12.00938015808857
H        -0.18867159526119   18.00043957514745    8.34863110675483
H         1.38067957745168   17.39274406121012    7.78289085866148
H         0.21987271225885   17.24837277678053   10.62579330578226
H         1.64433073253398   18.19570070215548   10.13434988101916
H         6.00630969873687   13.82433826204277    7.15199905222713
H         7.80481824834441   12.53227548716164    8.25927798338922
H         7.31981122881653   11.33784490305103   10.37185057292098
H         5.05521102009091   11.43073925536819   11.35253502101672
H         3.33579409417605   16.68753221359513    7.66893598627680
H         4.95226657530675   16.03405648257128    8.00183865962190
H         3.96384460307027   17.29279762231379   10.00730684752648
H         4.41217562282073   15.60176012318294   10.33564816988206

