79
CSD_code = ZIPFOV | q = 0 | S = 0 | Stoichiometry = C34H40O2PtS2 | MND = 4
Pt        1.40380903870890   -0.27753674288422   10.49015569834347
S         0.89853615410465    0.98174290693835    8.51847161933162
S         3.71103626791701   -0.11541875357235    9.87142550244051
O        -0.49163975215375    0.91874606403555    8.08062014036969
O         4.66196196846434   -0.40124545119821   10.94014056868730
C         3.20730993559911    1.05400199686205    6.85460056486886
C         1.86628186639405    0.77695884072165    6.98757746849550
C         1.17076264581699    0.08556472282724    5.98145642923515
H         0.11713511827755   -0.08625951561674    6.14117551647518
C         1.80635371009414   -0.33959125780002    4.85350958039274
H         1.26538644050672   -0.86458013694008    4.08039556574299
C         3.19112786676642   -0.11914477392768    4.69153338083664
C         3.88807534157966   -0.59884956293015    3.56364846365645
H         3.33480709946009   -1.13956691340760    2.80943599028458
C         5.23216554767115   -0.39290260336536    3.43043189201794
H         5.76011763903162   -0.76726005566736    2.56624400769614
C         5.93615164964153    0.30586173257465    4.42177788004868
H         6.99937493290761    0.45797897383435    4.31134995291068
C         5.28814674024275    0.79050118698085    5.52345623297888
H         5.84292332953587    1.32591935396136    6.27962313115103
C         3.89998648349713    0.59600425516201    5.69203682333769
C         4.00783618403674   -1.41643587177813    8.59895769241277
H         3.49001788439516   -1.10952504027465    7.69191640299310
C         5.49105114780221   -1.59283248967233    8.34934282821669
H         5.98179583731943   -1.78653106599587    9.30592824059015
H         5.91467522001733   -0.67620788278657    7.93057178154333
C         5.71951231608930   -2.75960420960118    7.39076768429701
H         5.27381175689303   -2.51850809784871    6.42126070904915
H         6.79065463376112   -2.90489543335532    7.23824920292565
C         5.09115761914743   -4.03813728133044    7.93957745374076
H         5.58167055457473   -4.30567076687740    8.87785420871493
H         5.24539424998221   -4.85730273044768    7.23443534805634
C         3.59769311045932   -3.84300650806447    8.19135301322194
H         3.16540876717047   -4.75589260028111    8.60372880824644
H         3.09392522912354   -3.62858054272631    7.24513932908656
C         3.37714352954818   -2.68310791557083    9.15761772166892
H         2.30276336222192   -2.51853153369975    9.32823954600669
H         3.83950887367446   -2.90877099522656   10.12133998733442
C         3.97933246066071    1.85262480896524    7.83187346401321
C         4.37343852665896    1.37711947459969    9.06133445917144
C         5.18403465412446    2.15287337267618    9.90696539365114
H         5.47108033266230    1.71466448290448   10.85078770201679
C         5.59107760436706    3.40036421485802    9.53933072717886
H         6.22065427172468    3.98911915060695   10.18973681988688
C         5.17297384050343    3.95100417054559    8.30867577756102
C         5.52648342738228    5.26174100812600    7.92785012124401
H         6.13934229168700    5.84445996609923    8.60028425723792
C         5.09753502307388    5.78669789328702    6.74155958728892
H         5.36785050965041    6.79306247291899    6.45888981714930
C         4.29739975920121    5.01873000323609    5.88325176563489
H         3.95733268066013    5.44448653631178    4.95109175256120
C         3.94468182256884    3.74159139153487    6.21938245617263
H         3.32766569756703    3.16153739230824    5.54922435668207
C         4.37090657745805    3.16858254797804    7.43724085068614
C         1.19368303734646    2.75317546914309    8.93754479346236
H         2.26862992676071    2.88863312517646    9.04375378324427
C         0.63114356956259    3.65867256653182    7.86191554344108
H        -0.42055687766890    3.40426558234115    7.71146690187600
H         1.15774695891555    3.49543393862091    6.91795417662603
C         0.76697659668367    5.11823850438310    8.29051074059012
H         1.82843254747890    5.36897242611413    8.37516641702017
H         0.33117802576311    5.76649120420200    7.52792607884875
C         0.07693994573618    5.35221361969651    9.63206552800422
H         0.19932372792528    6.39442659290423    9.93350149448960
H        -0.99212192463240    5.15660570895576    9.52532043168823
C         0.65173511471055    4.42942844826136   10.70435632611143
H         0.13586010913077    4.59035251433746   11.65211860984099
H         1.71017684809237    4.65888246824671   10.85307596002824
C         0.50374259476933    2.97281471416430   10.27558856606853
H         0.93603353317109    2.29964440447083   11.03093311976968
H        -0.55427971359427    2.72251785344910   10.16866929352621
C        -0.56619070451151   -0.60877283042660   10.92264472159448
H        -0.92314856625678    0.05578277013673   11.71364492587974
H        -0.77904026801073   -1.63646862179844   11.22400191238518
H        -1.12145394024779   -0.38754396126956   10.00733510308443
C         1.82825473802751   -1.16359119006201   12.28255987498761
H         1.25151551538492   -0.75707940014887   13.11591642575178
H         2.89057309108047   -0.98491077428325   12.46868994897075
H         1.65902633422566   -2.24292732115685   12.24981364720596

