111
CSD_code = ZIPHUD | q = 1 | S = 0 | Stoichiometry = C43H61N6Zn(1+) | MND = 4
Zn        7.05190605069668    4.16318212305382    4.37594492583395
N         5.28037774467831    3.54613020005282    4.78321189133070
N         6.77868409111271    4.96849881138201    2.65270221952734
N         8.57920992675049    2.85894984194893    4.57026491547897
N        11.57793976603994   -0.04336270014235    4.48588766764926
N         7.53565638706177    5.70260481699761    5.63304772644141
N         8.25509124435514    8.97509435006746    8.12502901045006
C         4.27692426115144    4.17053604838544    4.18851220710773
C         4.43089487081646    5.06375446388769    3.12880714367031
H         3.50933636719127    5.50553620411847    2.77671951406255
C         5.55345181431645    5.36069127358886    2.35292102472427
C         2.85685491134671    3.92130845863765    4.62668667552108
H         2.80795987440746    3.19733195629823    5.43523296204948
H         2.26510096313751    3.55677534807715    3.78928317548786
H         2.41140279579466    4.85709121805673    4.96141354070418
C         5.28761773498225    6.16476334014037    1.10604112821715
H         5.12284588184561    7.20675550420977    1.37866847895430
H         4.38825446832765    5.80973607739923    0.60820115380079
H         6.12308293248236    6.11526767142859    0.41299858040996
C         5.02807978215856    2.46801696570862    5.67456768937181
C         4.83890219526008    1.18000360590551    5.15060664695691
C         4.67678862605371    0.11806822033717    6.02951552612499
H         4.52546752739087   -0.87667950280199    5.63984056780561
C         4.69522084861112    0.31282332346845    7.39704977277561
H         4.56539640548089   -0.52424816539652    8.06594633945746
C         4.86630189925704    1.58613239239994    7.90394135820991
H         4.86401311573936    1.73550543203825    8.97257089862385
C         5.02792650501257    2.67613678646450    7.05981817845399
C         4.80226488225930    0.92639789346946    3.66059885419141
H         4.96225101752166    1.87289065697958    3.13493278183554
C         5.91402938422215   -0.03849636849798    3.24218258938001
H         5.80126948629387   -1.00154361080522    3.73356296936552
H         6.89114706733380    0.36738002986286    3.49946184845642
H         5.87546744831666   -0.20114307160769    2.16743933234974
C         3.43623107353846    0.37734359836913    3.24168791992868
H         3.26157581583148   -0.60340939648552    3.67637453636504
H         3.38635857326433    0.28480258687961    2.15915135123819
H         2.63927805681862    1.04068436041891    3.56800167517895
C         5.18419596566367    4.05985970321658    7.64566191810084
H         5.28953256693197    4.77400862303136    6.82376134965251
C         6.44259278689274    4.14067855489926    8.51250408342326
H         6.35521966399782    3.49597888062929    9.38308746625295
H         6.59672474816899    5.16145375778256    8.85744365128298
H         7.31790606982087    3.83274613931931    7.94275480842101
C         3.94630825281552    4.45524032805981    8.45339999888002
H         3.05318043061350    4.40081699456766    7.83557618004221
H         4.04967433517293    5.47406414252716    8.82086034460160
H         3.81055259653066    3.79681344436272    9.30717644865306
C         7.84980425581656    5.16815978754661    1.74217438220474
C         8.25561452597281    4.08702542562744    0.94257756700661
C         9.30885490254708    4.26814146399668    0.05815538955086
H         9.61611202846824    3.45811504420557   -0.58304903231764
C         9.97145465212783    5.47844579422291   -0.02274398848940
H        10.78534966314113    5.60419731862103   -0.72040495519868
C         9.59065179430369    6.52400485901742    0.79395694531573
H        10.12011892604466    7.46208850565234    0.73384401222373
C         8.52969910945109    6.39174729345183    1.67991315261476
C         7.54110912543890    2.75729353953818    1.03233258297835
H         7.13532075964855    2.65947253428778    2.04836075807798
C         8.46970542098422    1.56816455118108    0.78420087969959
H         7.96957991285420    0.64586939988833    1.06975070978098
H         9.38157168666249    1.66039725255887    1.37115906141634
H         8.73465161846159    1.48811879023976   -0.26678256125527
C         6.36731529882853    2.72036529391729    0.04967265993751
H         5.63567572467512    3.48492782024754    0.29498294348669
H         5.87641628330125    1.75062449895679    0.08798938915103
H         6.71945483525854    2.89023517855164   -0.96552181267538
C         8.15905096224906    7.55591513546739    2.57006089492460
H         7.27674151137636    7.28174445117764    3.15622320888535
C         9.30309212031267    7.85231415033789    3.54421340573802
H         9.56380899340718    6.96144697888667    4.11271321333048
H         9.00997702183659    8.63398627741681    4.24250460647206
H        10.18756459370655    8.18657847013472    3.00802048254210
C         7.82551774199054    8.80762648631351    1.75543414861984
H         8.70736198970370    9.18704811378800    1.24639848685930
H         7.45081157394713    9.59056360009581    2.41143934651082
H         7.06880174212921    8.59317302762136    1.00543025933075
C         8.46606792535263    1.71009818962990    5.25148642731537
H         7.55054982531438    1.58021009628675    5.81167902218172
C         9.42523788213202    0.73195466153364    5.26323378575644
H         9.24173937317559   -0.15927162727150    5.83704261658437
C        10.62116902722503    0.89700256452245    4.52722237843390
C        10.73541774570468    2.12690105047529    3.83835014744994
H        11.61191310722791    2.36351522439772    3.26075799842752
C         9.71798101772772    3.04261152362842    3.88773749366708
H         9.80187307527773    3.97604237231255    3.34856276812212
C        11.41351590262365   -1.28932932843514    5.20038045605158
H        11.31601710504693   -1.11439067585919    6.27453353011701
H        12.28272820148930   -1.91969011251131    5.03743293255157
H        10.53051358840194   -1.82813542399972    4.84847702054433
C        12.77980529597362    0.16530281174045    3.71025611119558
H        12.54289258734198    0.31339330349488    2.65382371275707
H        13.42296273142788   -0.70574020172477    3.79419115262504
H        13.33433291983816    1.03410585781259    4.07316676447413
C         6.66839326381229    6.71805019858799    5.73227624932976
H         5.77399304786161    6.63562857419757    5.12896861262965
C         6.85659668601084    7.81251380221430    6.53408567599343
H         6.10208735595557    8.57943715347239    6.54639162333827
C         8.02327134914950    7.92181593189337    7.32414642254754
C         8.92791015275532    6.84250988504982    7.20965075921861
H         9.84703428689249    6.82452323660632    7.76842201377323
C         8.64358791366447    5.79279209792131    6.37581266069621
H         9.33875487699199    4.96881126246010    6.28921354506769
C         9.46735239550948    9.04821475634805    8.90886559931366
H         9.53121294994053    8.21287912534597    9.61065689935817
H         9.47634408026907    9.97181967214637    9.48016660368384
H        10.35032117973588    9.03738782446147    8.26508531843750
C         7.29742209323414   10.05416432791882    8.21492002323430
H         7.15800034548059   10.53691055301408    7.24440476684337
H         7.65608444574936   10.80187021096704    8.91621570791219
H         6.33027827760247    9.69062874575098    8.57062603684757

