96
CSD_code = ZIPHIR | q = 0 | S = 0 | Stoichiometry = C37H54N4Zn | MND = 4
Zn        4.52231090062424    7.05492051664369   13.91750478971094
N         5.24666823800025    6.03936384027982   12.28507427072398
N         5.21201197640816    8.87348563072146   13.26317100539116
N         6.24562083906951    6.62325294773152   15.24989297376918
N         9.47985996962833    5.77342799842040   17.75500451015606
C         6.15055545272040    6.56819403564131   11.49461087067273
C         6.59624323970533    7.88885489616214   11.57176686870376
H         7.36993636886040    8.14427828602312   10.85920805182610
C         6.11814173415330    8.96682905091672   12.31937418668795
C         6.78473494304081    5.74949955057356   10.38956119650445
H         7.82610465050536    5.54706693336172   10.63994716826768
H         6.76966417128095    6.30374480055670    9.45300488700050
H         6.26893208983637    4.80283375467405   10.25017963359062
C         6.71762502625574   10.30807410810899   11.95178525086854
H         6.17286004144327   11.12707882179583   12.41470711277814
H         6.71000139052845   10.44173048777170   10.87162295742099
H         7.75496615759475   10.34551305759242   12.28434400411452
C         4.73707777504161    4.74918836630308   12.03760447192377
C         5.36852902739736    3.60566645282874   12.54901366478936
C         4.80302821412626    2.36007029824723   12.31943196889252
H         5.28338673146530    1.47611126798969   12.71292250391713
C         3.64157059015004    2.22773102450002   11.58462582522195
H         3.22038479906695    1.24934662169517   11.40372943474452
C         3.02317766833580    3.35574645105242   11.08078402527232
H         2.11953618617362    3.24642806280768   10.50005687832009
C         3.54763967372262    4.61964159933362   11.30204284237946
C         6.64387401250751    3.70746362603235   13.35297576839881
H         6.94087552519849    4.75840705490343   13.39160400171368
C         7.78266389044366    2.91340286277254   12.70925568913659
H         7.56594302213505    1.84785658393192   12.71216194872392
H         8.70825531102736    3.07421597895564   13.25981018666544
H         7.93481837973245    3.22603445913972   11.67901378073026
C         6.40379872876233    3.22945973177069   14.78642735406900
H         5.57959117022662    3.78270323924279   15.23068400320343
H         7.29454778266472    3.38698371279119   15.39317084080331
H         6.15712360227954    2.17037230606846   14.80486063844291
C         2.85669366113838    5.83537472106664   10.72879541672125
H         3.32030832722065    6.72659749589171   11.16337463114376
C         1.37057693543688    5.86093582076302   11.08616918987463
H         0.83255150262210    5.04641497814658   10.60715942220448
H         0.92543820475083    6.79770926834543   10.75731584716804
H         1.24331507483588    5.77537030916780   12.16235908596594
C         3.04722515724078    5.89006527215451    9.21093144819512
H         4.10486282094389    5.92634025890001    8.96074831052901
H         2.56602535009851    6.77657598454292    8.80226087524770
H         2.61260921484410    5.01170416472781    8.73774794291425
C         4.67501872886106   10.02788399549141   13.86634829444938
C         3.45832926194151   10.53885058351019   13.38552201291477
C         2.91196211143082   11.66240250791516   13.98598605197694
H         1.98873595342017   12.07484590035805   13.60789228095575
C         3.53313321827412   12.27147399724765   15.05926481864835
H         3.09535571913284   13.14705596545415   15.51649741405931
C         4.71765498393370   11.75289709631963   15.54354413227176
H         5.19749629017782   12.22879750474900   16.38627660135913
C         5.30650004529979   10.64158569957720   14.95854691081712
C         2.76466674285086    9.89542359444837   12.20713970074018
H         3.22495557014370    8.91673385717219   12.03718000914171
C         1.27692866173900    9.66958159960397   12.47575754297559
H         1.14315779592657    9.12841549896064   13.40890500432669
H         0.83932908049896    9.08390200440003   11.67016286815619
H         0.73587414346527   10.61067419123149   12.53858189215068
C         2.96261214862954   10.74284925830431   10.94780208231500
H         2.53862505275169   11.73594340893625   11.08441691505701
H         2.47532278350010   10.27262245311236   10.09583069618766
H         4.02111783839351   10.84952712082283   10.72306815154396
C         6.60390833406050   10.10562538021990   15.51809687663809
H         6.92002105532618    9.26070804407686   14.90122898524070
C         7.71250713831876   11.16005575044913   15.48893467121805
H         7.84422108091762   11.55258573106118   14.48357761140358
H         8.65420428740309   10.72146061449652   15.81524203769794
H         7.47781166316280   11.99123252001262   16.14948597262437
C         6.39047313718685    9.59640765807891   16.94518338876473
H         6.12831919006644   10.41446435330694   17.61222116452116
H         7.29760026175727    9.12325094874149   17.31896047568294
H         5.58537885075312    8.86549905342048   16.96397866771618
C         6.06981296519797    6.19578836030760   16.49617769839514
H         5.04250005813071    6.08407080306240   16.81289313444541
C         7.09605352958509    5.90242313231651   17.36358180038720
H         6.85565627648684    5.56192109218031   18.35591429189124
C         8.43063685326420    6.05015292847586   16.94226098637013
C         8.60300734885227    6.50469721163264   15.62118255378896
H         9.58422942320843    6.65191190000462   15.20303815575340
C         7.50270327275526    6.76946153715629   14.83937582036232
H         7.62754922063489    7.11848904590588   13.82318222195928
C        10.83350337500208    5.93139592844219   17.28032271984295
H        11.02457275775095    5.28938252626558   16.41551280912315
H        11.52999933907924    5.65541971618789   18.06763353166981
H        11.03302852958967    6.96888350665068   16.99656539010648
C         9.25498027038833    5.31360582193977   19.10450654668296
H         8.69707273069805    6.05467293590326   19.68414567817627
H        10.20967767798456    5.14676285965081   19.59627974174202
H         8.69792899288084    4.37223379480062   19.11168061936946
C         2.80562778082748    6.71734441850866   14.90013937231477
H         1.92257460695728    6.87550055419650   14.28697719963944
H         2.69350452449138    7.37144142772093   15.76233501930363
H         2.73339380802698    5.69811751531672   15.27256374117842

