79
CSD_code = ZIPJUF | q = 0 | S = 0 | Stoichiometry = C21H50N3Si4Y | MND = 8
Y        11.64730783019312   14.79513567336475   -4.84111938663054
C        13.48593680081345   13.65795473745442   -3.39099738840928
C        12.81984057589671   12.63952246987171   -4.15206508150135
C        11.52529377419344   12.44970764774729   -3.56689843130626
C        11.39888020481638   13.34867354322684   -2.47726308986196
C        12.59933572098100   14.09066491830548   -2.36931273457927
C        13.46151966094890   11.61564696515637   -5.05519294246528
H        14.45834975321394   11.91678132566410   -5.37167100586029
H        12.86164996618585   11.42599416987260   -5.94446842172500
H        13.56290874502979   10.67002550391979   -4.51627800715911
C        10.63574378178542   11.26986474818717   -3.85492964754272
H         9.64751532221482   11.40349531245665   -3.41927028515826
H        11.06963080292105   10.36552667567163   -3.42064283277254
H        10.52210278968382   11.10005234591974   -4.92579039952616
C        10.26874743683373   13.43275940172465   -1.49343631435318
H         9.36240389037807   12.97894782664157   -1.88737672551543
H        10.05260754929724   14.47200738361348   -1.25097092324741
H        10.53194681640839   12.91467381022311   -0.56843460708893
C        12.90923423997650   15.00920365189245   -1.22244162505285
H        12.84808295064712   14.45591670780162   -0.28329172561661
H        12.19612315121226   15.83133697266680   -1.17150040250702
H        13.91042119186290   15.42490175624227   -1.30315575823377
C        14.89400164042116   14.15206298696521   -3.59139080972265
H        15.44635915425601   13.46289041481866   -4.23284448898185
H        15.41773950964550   14.17920901704479   -2.63133268202461
C        14.93576591906866   15.57354554177965   -4.18065341201970
H        14.58720871505115   16.27666109496193   -3.41853750275253
H        15.97597862548806   15.83123137612020   -4.44112838493864
N        14.06599964797291   15.74676775125691   -5.35956397770753
C        14.05643668828906   17.17113408939346   -5.71431805457099
H        15.07797327266425   17.53190749806637   -5.90510103920102
H        13.62088014042376   17.75781297517305   -4.90677742574254
H        13.46141987717530   17.31873274008524   -6.61403069044437
C        14.62360202610204   15.01428833078315   -6.50425177275534
H        13.96780092697425   15.13833537755663   -7.36572748609182
H        14.69203011936438   13.95330829914421   -6.27709639802031
H        15.62714833857570   15.38716372477671   -6.75656480652602
N        10.45285957778078   16.34020742194472   -3.83767028055809
Si       11.05250662175168   17.81366811721307   -3.18315446624372
H        12.50701029299304   17.60596823238636   -2.87829332514427
C        10.94706102698223   19.33019694553779   -4.33890871760248
H        11.31264396822268   19.10264981685659   -5.33533106478121
H        11.52943121122728   20.16141797442587   -3.95319010546947
H         9.92150388914608   19.66881667410938   -4.43935897908292
C        10.20201699962313   18.31505455166436   -1.55449697125112
H         9.16539694609783   18.58103155711330   -1.73107321015716
H        10.68992587265908   19.16812202232800   -1.09459244679479
H        10.20839753170307   17.50246966863470   -0.83621359035314
Si        8.75512456467353   16.06781581114384   -3.89490234288773
H         8.15891587917061   15.85830504240521   -2.54607050370981
C         7.73001099239993   17.44763703957805   -4.71867189478297
H         7.66807141283037   18.31358046653618   -4.06844008432907
H         6.71560193961596   17.12469617927999   -4.93008275916217
H         8.18138517902509   17.76824727277563   -5.65211781261152
C         8.49303862368896   14.44034594158994   -4.86679951744235
H         8.68360504327678   14.57649379502474   -5.92958437502109
H         7.47102130444677   14.08668749092820   -4.76190443200622
H         9.14843134877580   13.64625795639760   -4.49768811083435
N        11.18362000634979   14.77428892830344   -7.01305352088473
Si       10.80903026668918   16.26138465888329   -7.80699054974635
H        11.11911026693165   17.35801671599348   -6.84048151459712
C        11.88257363847892   16.56388411285961   -9.36294603985067
H        12.94663188578431   16.53101288159179   -9.14731632044163
H        11.66865227727223   17.53448082417477   -9.79870543093474
H        11.68330983618688   15.81466252183729  -10.12194523773414
C         9.00494601054858   16.51386871930579   -8.37623167899813
H         8.78783978991186   15.96528207400109   -9.28656731021490
H         8.81390383513867   17.56401871322681   -8.57755024135890
H         8.29597490734762   16.19220712526093   -7.62071846189324
Si       11.03337037573289   13.27118455320867   -7.84530071815278
H        10.69570624372017   12.22339506425254   -6.82934006566187
C         9.67663528657756   13.15219293855971   -9.17652022026491
H         8.70500960756479   13.42360079831422   -8.77845680272440
H         9.60125015938909   12.14129312359957   -9.56504888751393
H         9.88631152654660   13.80894447054236  -10.01416406043605
C        12.64881613486094   12.73692735795810   -8.72499305594384
H        12.95157173254801   13.47004680453905   -9.46612008293412
H        12.50713051708114   11.79237016842936   -9.24056766556085
H        13.47481791230538   12.60992270172750   -8.03341047631512

