64
CSD_code = ZIPKAN | q = 0 | S = 0 | Stoichiometry = C30H27CuIN2O2P | MND = 4
I         6.01196549119397    3.01234532942090    7.34090900322551
Cu        7.34610880420343    5.09965229035865    7.45115980741081
P         9.13999132174931    5.02746882743344    8.84364059557404
O         3.68549359093802    9.88338068629648    6.67756282000454
N         6.24012513644842    6.78137171087004    7.61046523960229
N         8.23577087692013    6.19306754863851    5.98235654147329
O        10.58875531207153    9.06460609366376    4.18270053117708
C         6.55320708253873    7.69604205868016    6.67816720494141
C         4.47416515774235    8.84739135121491    7.03189201579994
C         9.93432396323506    6.49251721703987    9.57574997176384
C         4.16045465165631    7.87904229764162    7.99127987988757
H         3.23133080744500    7.89283299818340    8.53537016873282
C         8.82314598549168    3.96469487569894   10.28488426670359
C         5.69641343191474    8.74212957036870    6.36888653597321
H         5.93287778182515    9.45850423057993    5.59973041526100
C         9.80134697613031    3.15987304207095   10.86048564226665
H        10.80510691253190    3.15775109974015   10.45765543960923
C         7.82308385720626    7.46796302836101    5.99303764318942
C         8.56556928535088    8.49310295342691    5.40924046960060
H         8.20895929754358    9.50723007067334    5.47769464506907
C        10.51160006139191    4.14690285706475    8.03928999368875
C        10.03785961071898    6.69928720865631   10.94729124824045
H         9.69726222052327    5.93695365963371   11.63398655845626
C         7.53040805218140    3.95947430500855   10.79891668627923
H         6.77483219340000    4.57676677296434   10.33042949011374
C        10.18110381869050    2.89924376329752    7.50847712550731
H         9.17786835924675    2.51491469102305    7.63958777902508
C         5.07584473907770    6.87491534973142    8.23097019201617
H         4.86154191984288    6.10120286342719    8.95560586567618
C         9.48097345810498    2.36200140370358   11.94291906877035
H        10.23933130312302    1.73449010832475   12.38840314760911
C         2.41330945597135   10.00100873669003    7.27555395106480
H         1.95618631627264   10.87804169179678    6.82110218153932
H         2.49191604283220   10.15207094532481    8.35634118833028
H         1.79462802528226    9.12230143508218    7.07198832715626
C         8.19179900211885    2.35960711703334   12.45229630762773
H         7.94693311175732    1.72641599739689   13.29219263839636
C        10.58389839256875    7.87538731955859   11.42967729896593
H        10.67010577132336    8.02674130901878   12.49596905860965
C         9.76338994230430    8.17944917514921    4.78000288420920
C        10.35271811305034    7.49469775807513    8.69998939114678
H        10.25232709612800    7.34437348073290    7.63251933780463
C         9.37780278665796    5.89299017750320    5.37261660718608
H         9.65760807652334    4.84800725750931    5.37913067897533
C         7.21582029788728    3.15933597893689   11.88125696732472
H         6.20882624316645    3.14854898667156   12.27049542356426
C        11.02058378058104    8.85630125107638   10.55469761191703
H        11.44869947159128    9.77125431549561   10.93683159748111
C        10.16899072632812    6.83388851289102    4.75921181376709
H        11.08717858991139    6.56479681437542    4.26531184986308
C        11.12605001824303    2.16516128267066    6.81966032001774
H        10.86443270536036    1.19949382228191    6.41356406965203
C        12.40448392230998    2.67393726406443    6.64525954912758
H        13.14423321344416    2.10337401462532    6.10324621998011
C        11.79237846474558    4.65518069462424    7.86020582729250
H        12.05896172941515    5.62075818851873    8.26725376117682
C        10.90174976593053    8.66448652273205    9.18684687427602
H        11.23656933535306    9.42988946819515    8.50082786645759
C        10.21847681890812   10.42406016142839    4.15243574643282
H        11.01785697066196   10.93428529389108    3.61837106796379
H        10.13441415551253   10.83928356273206    5.16163636446474
H         9.27495133449650   10.56930328098239    3.61768871344958
C        12.73337274035926    3.91444803374288    7.16561387111796
H        13.73032612250685    4.30979988596015    7.03225864106574

