86
CSD_code = ZIPLIT | q = 0 | S = 0 | Stoichiometry = C35H43Cl2NO2P2Ru | MND = 6
Ru        3.23333034255743    2.51176145523105    4.38692396653623
P         3.00721557330586    0.23633574040536    4.31291311275923
P         3.80340702101487    4.72926281694718    4.66748600272478
Cl        1.43206173859992    2.77617733266005    5.92911882212084
Cl        5.21096999965021    2.14037426557543    3.08939292610497
O         0.49664913533767    6.98133908880815    4.54762930846880
O         4.54324912839835    1.96088415605641    6.21770824369362
N         1.34812915418786    2.91759645660508    2.03651627816464
C         4.28530975059694    5.16734713359057    1.95055439939638
C         4.75481187333263    5.89010475748365    0.86771143542128
C         5.40735041597133    7.09455706595740    1.06757575989629
C         5.59581869054340    7.57560144340605    2.35373883979885
C         5.12812318067844    6.85726683556059    3.43754304044157
C         4.46624405771403    5.64906833284393    3.24024167667718
C         5.01910368465805    5.63103920710165    7.07996111896661
C         6.09964808366501    5.71537185149627    7.94202042295356
C         7.31151668674728    5.13739560779255    7.60372013299288
C         7.44642715160677    4.46926721111492    6.39642076542605
C         6.37333508980696    4.38220232840605    5.53082351654596
C         5.15298250429772    4.96835049818131    5.86460106811386
C         2.50650922475041    5.90568170906312    5.23623929840546
C         1.34772572873319    5.89633662935382    4.25099455670993
C        -0.68700614202455    6.97109723022813    3.79851935600256
C         4.97070484332617   -1.32269475577318    2.93829340079643
C         5.44832341619392   -1.92310816838726    1.78600126746094
C         4.72713349134310   -1.85123952640958    0.60718855461760
C         3.52168407555762   -1.16775995326708    0.57381194060936
C         3.04211738824080   -0.56788855051946    1.72051725733871
C         3.75744698991598   -0.64968232403717    2.91265805825011
C         0.23305322683827    0.05075737842193    4.30313627877669
C        -0.97507510575679   -0.62425991725065    4.33918925035316
C        -0.99552855902856   -2.00176504356628    4.47504657126461
C         0.19316888682860   -2.70958792389632    4.57083568348538
C         1.40176447284330   -2.04133010524031    4.53295119425704
C         1.42422498512063   -0.65541618587312    4.40737986649430
C         3.91215437535969   -0.36076254705964    5.81445836511061
C         5.04237349506900    0.64308240204809    6.06570315964037
C         4.10049976647964    2.24383979228909    7.52893073358475
C         2.10941000452936    2.81001747676667    2.92007725575238
C         0.43156869617548    3.14351662888508    0.98869010779557
C        -0.94832060281979    3.38350859838893    1.60910138259983
C         0.41237233115516    1.90181787464194    0.09157491867773
C         0.89755938760187    4.37232272425058    0.20063117800980
H         3.79438631156914    4.21338872360619    1.80857940127612
H         4.61811012900371    5.51030164476540   -0.13442418999416
H         5.77618147782119    7.65724618326941    0.22233095105835
H         6.11165896774305    8.51198839852768    2.51050330905428
H         5.28451688251860    7.22740217082192    4.44214513241379
H         4.07738777467521    6.08097795440802    7.35935208822647
H         5.99276133497934    6.23430941878514    8.88400853459532
H         8.14966412193159    5.20602999124297    8.28219752164582
H         8.38988468750033    4.01396182260414    6.13191979495234
H         6.46354330809456    3.85214980271886    4.59070208667658
H         2.92163050445321    6.91569820182763    5.30190942569775
H         2.13732272763731    5.59046477266045    6.21522832079174
H         1.72653966676982    5.98829034975666    3.21617380218419
H         0.80520915109596    4.94226893818029    4.33452839675130
H        -1.25555395134053    7.84927276889090    4.09793777869814
H        -0.47856893835095    7.02325808466307    2.72097100696643
H        -1.27757765869044    6.06840994476474    4.00151051861012
H         5.55821599898445   -1.37132543279346    3.84380436396861
H         6.39490603569281   -2.44361468764179    1.80811191613111
H         5.10881557776451   -2.31888793799777   -0.28851924809142
H         2.96210526629692   -1.10113190571885   -0.34824602619081
H         2.10972204590335   -0.01676483060273    1.71324824957758
H         0.26666381098168    1.12881062470828    4.21662263415697
H        -1.90206653265146   -0.07437944248312    4.26629320198315
H        -1.93808448174130   -2.52868683492563    4.50600705473134
H         0.17434387019392   -3.78512334019278    4.67259884618655
H         2.33173597117106   -2.59098703782249    4.59250788392302
H         4.29724098350050   -1.37517216733119    5.69087123766294
H         3.19928717676256   -0.35415502420450    6.64663152862153
H         5.62980207080517    0.37176106311612    6.95443597638521
H         5.70622124386084    0.68394146536726    5.19243032382763
H         4.94501743921428    2.16834465542819    8.22551146178663
H         3.72028886743885    3.26503107703591    7.53181142522012
H         3.29567099972586    1.57523972137314    7.85011918909569
H        -1.25035264851101    2.52126847005743    2.19925028493721
H        -0.92134552306824    4.25379477277736    2.26010500614547
H        -1.68408201593590    3.55058472362998    0.82665663418436
H         1.41126955542378    1.69584705877486   -0.28652828791695
H         0.06579084152830    1.03584029050316    0.65191437557379
H        -0.25654652285481    2.06366203628525   -0.74972927664515
H         1.87771578710801    4.19155618570479   -0.23399079289651
H         0.19282875460998    4.59111523271824   -0.59739159995056
H         0.96789129126878    5.23732506446485    0.85646928482249

