66
CSD_code = ZIPWEC | q = 0 | S = 0 | Stoichiometry = C21H40IrNOP2 | MND = 4
Ir        5.14227431614067    9.93222345026990    1.26800850835978
P         5.80193435558394   10.85599148717971    3.29358988662142
P         4.11933730650701    9.59548736791994   -0.78921197507149
N         3.98625530839576   11.62746174252264    1.22154043040130
O         6.81538196622591    7.44033732497291    1.35390272518184
C         4.01612235268573   12.50811689927524    2.24272888417804
H         3.37406182532403   13.38941581449730    2.16744809947017
C         4.79883191970235   12.33092994292976    3.33276843179289
H         4.82451813666740   13.05067470869527    4.13626644491415
C         3.18098660832954   11.88145300921646    0.16975845546617
H         2.58550042732279   12.79746197662412    0.20022938029692
C         3.09756802962577   11.05410778083292   -0.89826609608329
H         2.43773564734557   11.26142767055386   -1.72655639232644
C         7.57648877529696   11.51217477520139    3.36498319912652
C         8.56800379442728   10.37511772964388    3.12710604605585
H         9.56309238135776   10.78252846343264    2.95080031262078
H         8.27118180950348    9.79752136537270    2.25291980800633
H         8.62646381608461    9.70438872797853    3.97850785047814
C         7.92156141158312   12.26576357615807    4.64471298845990
H         8.87252457678256   12.78373498775371    4.51890525016965
H         8.02367683622679   11.58598419107803    5.48745872866548
H         7.16249601097740   13.00967759338397    4.87807367297032
C         7.64098683393974   12.46499468756409    2.16743307305638
H         8.66448486596573   12.79355606452257    1.99308033084780
H         7.01980553707351   13.34310650392183    2.33407669619846
H         7.28371720934943   11.95541858160626    1.26991600899865
C         5.31365596215774    9.93090567421971    4.86972592482291
C         3.97065139052651    9.30006148917574    4.48769904858834
H         3.54796946984355    8.75383549695986    5.32989926948468
H         4.10523364784803    8.60909099827014    3.65373025974156
H         3.26105590095189   10.07089294889913    4.18750406683976
C         6.31511256346265    8.82308269664658    5.18125374420724
H         5.88591834579726    8.12443139414115    5.89894052789595
H         7.22705212844935    9.22675054967683    5.61476921638238
H         6.56397293885012    8.27366610312021    4.27465321471204
C         5.10893877721812   10.83097735516723    6.08553135573512
H         4.78289586318900   10.22565116425637    6.93145050072982
H         4.33946362377059   11.57418063346480    5.88992078562361
H         6.02280646200725   11.34238782023141    6.37240260143571
C         5.23642652655358    9.70903233641350   -2.31256967597690
C         6.27741630166673   10.75131384326468   -1.89119191455578
H         6.97774115391327   10.94634038711632   -2.70230050701176
H         6.83601996017179   10.39265929318802   -1.02488095950113
H         5.78994034503505   11.68931588997976   -1.62597246104689
C         5.93855008857749    8.37953903950579   -2.57096760161911
H         6.78279498664183    8.52894011270243   -3.24350188346341
H         5.26602094236825    7.66250994524503   -3.03575593337901
H         6.31349596558255    7.96346282514409   -1.63707053811109
C         4.52811249977408   10.20029086362355   -3.57226350532413
H         5.25311948516126   10.29208324544290   -4.38113092827582
H         4.08446776561679   11.17954343916280   -3.40779891104916
H         3.75049524688762    9.51514330842976   -3.89601959645853
C         2.88412447127082    8.16653407689648   -0.90835042655668
C         2.11800193132710    8.10098508499686   -2.22504538033897
H         1.29015401656963    7.39785629168432   -2.13192808950978
H         2.75601142413311    7.75583469110713   -3.03535283604826
H         1.70495978663902    9.07277831982717   -2.48758945526532
C         3.58457683411249    6.83851552430067   -0.62874890360356
H         2.84355637384982    6.05342659826707   -0.48111717895220
H         4.18875346385462    6.91716503478751    0.27369194673877
H         4.22936396499208    6.54044181975156   -1.44949206099831
C         1.91626193450477    8.45201945322722    0.24402791301933
H         1.23717811507406    7.61359828338902    0.39160756713318
H         1.32556357272890    9.34431285046312    0.04493883162273
H         2.47779974433937    8.60922903900651    1.16765452385503
C         6.16617396636391    8.41045765575971    1.31816669920412

