112
CSD_code = ZIPWAZ | q = 1 | S = 0 | Stoichiometry = C54H51O2P4Ru(1+) | MND = 6
Ru       11.89285875844615   11.11866783561491   17.58164727162349
P        13.97893717860136   11.35231322358817   16.59274971948775
C        15.49273013468551   11.79195796665355   17.50444264869878
C        15.39151911835622   12.23535128010197   18.81668174433462
H        14.41503701072287   12.27756787530627   19.28147943171645
C        16.52209225366114   12.62290013583579   19.51431502481320
H        16.43232693256369   12.96238588129432   20.53547893561563
C        17.76027195507685   12.57437419218132   18.89655718601079
H        18.64586761322855   12.87332928877457   19.43606813656852
C        17.86353578201005   12.15455103067350   17.57842550156003
H        18.82769382641940   12.13374711816761   17.09315080358839
C        16.73561530084010   11.77084245391825   16.87775876557356
H        16.81900238835570   11.47171654400154   15.84187995986822
C        14.08005775088347   12.63952035764277   15.30319915823065
C        13.82412757776305   12.41920074036103   13.95386509240755
H        13.58102750529653   11.43311036669561   13.58633972981807
C        13.88250374096128   13.47154533802613   13.05633959204087
H        13.69068385809262   13.28910104289032   12.00940664380251
C        14.18488366082905   14.75033381324735   13.49269598005140
H        14.23090883894559   15.56597894317833   12.78736885266958
C        14.42556665650271   14.97977019515296   14.83805779269373
H        14.65777066322275   15.97534972416476   15.18528604646989
C        14.36933464814039   13.93347079773080   15.73872571027107
H        14.55213343398532   14.11398772316193   16.79047149338452
C        14.42114890930612    9.77252653542004   15.73500524562427
H        13.99152819435773    9.78179103596492   14.72969444311839
H        15.50664888233804    9.67947147151389   15.65169208316892
C        13.83085716724589    8.61340623665781   16.52537216694359
H        14.31857812128002    8.54166393912653   17.50341180673742
H        13.94498595307900    7.66679664642673   15.98633302761118
P        12.02863409747905    8.92915450095402   16.82045737937325
C        11.39472052020722    8.57039915999075   15.14924296549226
C        11.32156505318036    9.61768667125573   14.23509609069676
H        11.56135523806017   10.62353237112279   14.55447013994454
C        10.91624347842310    9.38130727222238   12.93386064801561
H        10.85829568549107   10.19934704425360   12.23072173755340
C        10.57863400673127    8.09770283802297   12.53702180109883
H        10.25609910131278    7.91205784340621   11.52372969803147
C        10.65329876641471    7.05184885551005   13.44293431317941
H        10.39216981931643    6.05079175598813   13.13430994611607
C        11.06371746053995    7.28079235780189   14.74399475869784
H        11.12327914411032    6.45900816406349   15.44253064805856
C        11.52290753023134    7.43393077850804   17.73063772889513
C        12.40118274934329    6.46983452006310   18.21299751788492
H        13.46703345547792    6.57643069889303   18.08873861827312
C        11.90893467980341    5.34825761177315   18.85996366245734
H        12.59851564885881    4.60052019046248   19.22157532121623
C        10.54715079078624    5.17954993328096   19.04156115900622
H        10.17263307346070    4.30259874948307   19.54690043046421
C         9.66546348364644    6.13614469372989   18.56239486419919
H         8.60072001094045    6.00893713976140   18.68938991192286
C        10.15168297030701    7.25193678909782   17.90890962813441
H         9.47168818052245    7.98907466463428   17.50741082999158
P        12.27116413296991   10.35498119890350   19.73989421801499
C        13.33533324011543    8.94922458639492   20.20606953967661
C        14.69113980921256    9.06266304674646   19.90282756487435
H        15.04302288681717    9.94491325362419   19.38474845357031
C        15.58218712619723    8.07185188816453   20.27063797800474
H        16.63025680541860    8.17548316080111   20.03188596498140
C        15.12837187390951    6.95339810064099   20.95162880782112
H        15.82163983851492    6.18092812196979   21.24710015783255
C        13.78307639505679    6.83305394458390   21.25548094399448
H        13.42557786827336    5.96553610183589   21.78949228777902
C        12.88605095616692    7.82009165767161   20.88338061340781
H        11.84236165654502    7.69724705376591   21.12598024720378
C        12.69277406240497   11.55486283369080   21.05084082865222
C        12.57430273031143   12.91825616315556   20.79881342181594
H        12.30510527247157   13.25745134356582   19.80731976825644
C        12.82452130123288   13.83543662185828   21.80466252087167
H        12.73198425081758   14.89254238257926   21.60382289398302
C        13.19835669852526   13.39731978447856   23.06416733731182
H        13.39759443137398   14.11212732767423   23.84793777708278
C        13.32211974453841   12.04001209697809   23.31734405792717
H        13.61771253595598   11.69831775891177   24.29784043691735
C        13.06899270456662   11.11817255140774   22.31829218699422
H        13.17079257753248   10.06077180040426   22.51796739395861
C        10.60915197556172    9.83189902700023   20.37926144348297
H        10.31646345261831    8.91258498665641   19.85894513321695
H        10.67597857216261    9.64536088840839   21.45591809981063
C         9.61770090438231   10.94784153548845   20.08054038384772
H         9.91690872743890   11.85663009426328   20.61351954640025
H         8.60234178188888   10.69360613895664   20.39242126808390
P         9.69344216989592   11.30534074973677   18.27337834865039
C         8.46622520041961   10.23135266670731   17.47334949364692
C         8.60770321412044   10.10028984485740   16.09166890224416
H         9.40160226992413   10.64162230714184   15.59400661046445
C         7.74549384216312    9.29644636909654   15.37070659752246
H         7.86919547475966    9.19593666720639   14.30280539637301
C         6.72875737826891    8.61904519459719   16.02542157431167
H         6.05570985896170    7.98490793179246   15.46907778670838
C         6.57152658335754    8.76105569127968   17.39464579717080
H         5.77171785551208    8.24256653238844   17.90192051030504
C         7.43301561203404    9.56475216331802   18.12229070619308
H         7.29227148606247    9.65875815234369   19.18844662457743
C         8.89349820886594   12.93880578502184   18.14389407994392
C         7.91478679923682   13.18595481173373   17.18415620193145
H         7.58469589345950   12.39407118712213   16.52736737801638
C         7.35576068105474   14.44696683484726   17.06992097207076
H         6.59290361688413   14.62599926298058   16.32706582135935
C         7.77136650804926   15.47394029565433   17.90108481722848
H         7.33435844763903   16.45633659200593   17.80801474122904
C         8.75280742512936   15.23678060200537   18.85033549297531
H         9.08348820088207   16.03500861007517   19.49775799788120
C         9.31433381444797   13.97965376004521   18.97075057363936
H        10.09011921327293   13.81405722672753   19.70474631260821
O        11.17716475850134   12.29725866027738   15.90858493369067
O        11.93027382727226   13.27895373838538   17.67961511743272
C        11.42704767371708   13.35601334506000   16.53391691683397
C        11.10766190441671   14.69390058696743   15.92302318614219
H        11.60545348652644   15.48260344953746   16.47885189198545
H        10.03061820495289   14.84996073635955   15.96211211887344
H        11.42045731739615   14.70552045639186   14.88199202900987

