25
CSD_code = ZIPXUU | q = -1 | S = 0 | Stoichiometry = C12H4Cl4CuS4(1-) | MND = 4
C        -0.27368713366924   24.19233163412816    8.17218161431329
C        -0.94517820097183   22.97445989268145    8.08373633992146
C        -0.26666437471210   21.77229682614417    8.17114084021101
H        -0.81277045398919   20.84587380666362    8.09950632201190
Cl       -2.65311495705301   22.97148507807437    7.86296318162783
Cu        0.42016070022349   27.22721466287299    8.25864420060234
S        -1.14895076606872   25.70230222200730    8.07023403168127
C        -0.26919818784697   30.26125221790055    8.14158177597834
C        -0.93701528920750   31.47908495854448    8.02887972179255
C        -0.26264058742775   32.68126504343105    8.14442970499363
H        -0.80580108179562   33.60759737682913    8.05233423632624
Cl       -2.63444199308444   31.48222152190782    7.73863914190348
S        -1.13626862140407   28.75150911995677    7.98179457648075
C         1.11357259235961   24.19232020879156    8.34921529348898
C         1.78507727151228   22.97444127547390    8.43742189612546
C         1.10656733972507   21.77228742159678    8.34989120433614
H         1.65267258648719   20.84585876581043    8.42146208419140
Cl        3.49301706384266   22.97146087461926    8.65816465162954
S         1.98885106218638   25.70226923944253    8.45151318114703
C         1.10897758606120   30.26123680101145    8.37980106206290
C         1.77685777075164   31.47906065679723    8.49226285769630
C         1.10252377952398   32.68125270248230    8.37658287016050
H         1.64571207383892   33.60757632768326    8.46860246062798
Cl        3.47429747576142   31.48218145669451    8.78242966601696
S         1.97594434495660   28.75145990845490    8.53988708467273

