25
CSD_code = ZIPYEF | q = -1 | S = 0 | Stoichiometry = C12H4Cl4CuS4(1-) | MND = 4
C         2.61248534738591    0.45247439231736    1.63306808931559
C         3.57277771991939    0.47825698845102    2.64228359064156
C         4.83328111972682    1.00368715292257    2.42138733462685
H         5.55561697528476    1.00863639288876    3.22150958206637
C         5.15262148560258    1.51659473358097    1.17548961349624
H         6.12920907976820    1.93043517430538    0.98317983488410
C         4.20763755078455    1.49786369750123    0.16535100816433
C         2.93508914564817    0.97046236640477    0.37453777943582
Cl        3.17827276153159   -0.15810845207178    4.19336446156904
Cl        4.60751151395722    2.13733559947814   -1.38312736991336
Cu       -0.00000028457377   -0.00000043056203    0.00000107580057
S         1.02489408319479   -0.21635752532253    1.93020303708534
S         1.75405357635208    0.95415371680436   -0.91426568265402
C        -2.61248485188333   -0.45247434536859   -1.63306781940293
C        -3.57277690801736   -0.47825677904781   -2.64228345158209
C        -4.83328037038863   -1.00368669101519   -2.42138798948469
H        -5.55561594461998   -1.00863572851591   -3.22151051812763
C        -5.15262178460644   -1.51659454744465   -1.17549065828793
H        -6.12920948748776   -1.93043487483712   -0.98318129677958
C        -4.20763827223976   -1.49786387043058   -0.16535142236082
C        -2.93508964874826   -0.97046259946846   -0.37453788511514
Cl       -3.17827139654534    0.15810874152006   -4.19336379833326
Cl       -4.60751296937227   -2.13733603275884    1.38312702464820
S        -1.02489361361193    0.21635735148185   -1.93020131179962
S        -1.75405482706122   -0.95415443081296    0.91426677210701

