81
CSD_code = ZIQCUX | q = 0 | S = 0 | Stoichiometry = C36H38N2O4Zr | MND = 6
Zr       -1.46342711353697   -0.96068781491854    3.94804420182874
O        -2.66360926132224   -1.22385767941164    5.48019911680474
O        -4.80521700817810   -3.83614947233780    2.92945816028140
N        -2.90292813401215   -2.66763605948371    3.11509987366416
C        -3.86087335328364   -1.64669064495370    5.74771102012651
C        -4.47314043786936   -1.28489905530601    6.96911468542746
C        -5.73002038164818   -1.71785226604552    7.30539327028052
C        -6.44624923450588   -2.54655232015015    6.44341641521197
C        -5.88069038441499   -2.93027455909720    5.25303410673044
C        -4.59619103321770   -2.50498304248665    4.88362511087688
C        -4.04944203856112   -2.96110895182267    3.62973195576653
C        -4.09468890470617   -4.18242284694075    1.75408501728124
C        -2.75006069344157   -3.41380628041833    1.86292243174492
C        -1.56012383129050   -4.37084200266958    1.98426253026621
C        -2.54490967748768   -2.46617976679705    0.68004102736877
C        -3.90014007971347    0.57750210722819    3.35537244288510
C        -4.15927948987532    1.26244388385105    4.55859139727961
C        -5.39777166611607    1.21274063717642    5.16112708540424
C        -6.43687436454598    0.49223004613283    4.58814519390524
C        -6.21419108840027   -0.17468311997257    3.39589199507911
C        -4.97433527273320   -0.13106714550000    2.78944198014629
C        -2.58065721858829    0.61369217587147    2.73809313430975
H        -3.91345584150127   -0.63452072677797    7.62579391738533
H        -6.16984983685955   -1.41177780860613    8.24360700863442
H        -7.43705085687404   -2.88043065282347    6.70932011414225
H        -6.42058705134869   -3.57114040082465    4.57325123745601
H        -3.96300277944293   -5.26816478397606    1.73225203950122
H        -4.68454206304553   -3.87683111652227    0.88472758633307
H        -0.65346862452786   -3.80338739896335    2.18780580578525
H        -1.43001754830782   -4.92527359423344    1.05702030037560
H        -1.72494432820201   -5.07840202524987    2.79552987444434
H        -3.41181804972581   -1.81986796798977    0.55456691786867
H        -2.40279628331041   -3.04151847314796   -0.23295389587244
H        -1.66555210891472   -1.84811100542874    0.85899761794194
H        -3.36064476084682    1.83834773946597    5.01633742971561
H        -5.56678657609822    1.74774959087605    6.08553384204459
H        -7.40591482666279    0.45781262601125    5.06242418809424
H        -7.01896202405312   -0.72836874207413    2.93129777335266
H        -4.83186530718168   -0.63448372197593    1.83980510336594
H        -2.09192749019619    1.58526140821099    2.88525188497899
H        -2.61587427694472    0.37417988016028    1.66871166414270
O        -0.26342171114796   -1.22387031256718    2.41577174424239
C         0.93381915292157   -1.64673497755071    2.14820849431704
C         1.54607643357241   -1.28491293018290    0.92681095561661
C         2.80295025950605   -1.71786951398679    0.59051495469340
C         3.51918252750239   -2.54657696168400    1.45248169876240
C         2.95364026383160   -2.93029766573789    2.64287378031104
C         1.66914604415912   -2.50501402922539    3.01229554092511
C         1.12240578293259   -2.96113859809445    4.26619807417493
O         1.87819369492935   -3.83615990761412    4.96648061927627
C         1.16765890072390   -4.18243639134456    6.14184891345984
C        -0.17697462703294   -3.41383102786004    6.03301984648589
N        -0.02411607319930   -2.66769619994066    4.78082254587877
C        -0.34643981777816    0.61367666605741    5.15782960197673
C         0.97298183968086    0.57731830530581    4.54043667637126
C         1.23216186520096    1.26239552602858    3.33730315231609
C         2.47067626336089    1.21278599244493    2.73481527203172
C         3.50978618748370    0.49227154699688    3.30778324499851
C         3.28711113025911   -0.17464382706915    4.50003179308665
C         2.04723057217108   -0.13111030068273    5.10644019190221
H         1.90478293459952   -0.63450232984595    6.05609171083825
H         4.09186567997450   -0.72839687874827    4.96457991844941
H         4.47880954086708    0.45781404202111    2.83346545096222
H         2.63966334435874    1.74773287994829    1.81036355678690
H         0.43353378163040    1.83833303765801    2.87958944695795
H        -0.83511498793167    1.58528099448525    5.01068163941687
H        -0.31117369737503    0.37419031974464    6.22721581615756
C        -1.36692558346404   -4.37084867135247    5.91167378498901
H        -2.27357647149638   -3.80338882065777    5.70812165533916
H        -1.49703908242195   -4.92527177411890    6.83891885645571
H        -1.20210277625116   -5.07841087300807    5.10040846862592
C        -0.38215286243480   -2.46619982165391    7.21589354381833
H         0.48474820592283   -1.81988275411704    7.34135951398460
H        -0.52426667731735   -3.04152460292361    8.12889841917719
H        -1.26150257112139   -1.84812617700749    7.03692832463136
H         1.03597174139668   -5.26817726635866    6.16368092756664
H         1.75750430921248   -3.87684266792530    7.01121306274410
H         3.49354649939741   -3.57115852173401    3.32265316759335
H         4.50998327217385   -2.88044971557612    1.18657052559766
H         3.24276969986551   -1.41179330897539   -0.34770329483867
H         0.98638831283022   -0.63452113105627    0.27014584157180

