52
CSD_code = ZIQDEI | q = 0 | S = 0 | Stoichiometry = C27H22ClNiP | MND = 7
Ni        5.02057698834669    4.35603712159778    2.18910291882999
Cl        7.03409022131251    4.18279388820216    2.68923317581622
P         4.55880899114388    2.51906668562115    3.17956981139912
C         5.08994274996879    6.21955046238028    1.33486574846180
C         4.26870212152393    5.38245720231184    0.55054879257551
C         3.21647282968634    4.91936445220319    1.36415455758487
C         3.20836719374728    5.70574969911263    2.58833304997192
C         2.30825497155406    5.79211656070639    3.64492355539237
C         2.58000814893870    6.68423606287199    4.66773168522808
C         3.72743169786927    7.47373732227785    4.65431496688591
C         4.64104769424253    7.40014602271320    3.61705944187873
C         4.38533983395423    6.51843621874485    2.57139115441053
C         5.29434911094836    2.48513762390578    4.84400462511942
C         5.30178615313020    3.69599012822545    5.53347610991295
C         5.82583761955445    3.76600700453796    6.80907309750865
C         6.35557954560186    2.62886056542238    7.39944029140760
C         6.36344988363908    1.42830246250923    6.71015448207831
C         5.83403532527750    1.35060900671522    5.43288479350046
C         5.09328590759747    0.97924108271294    2.37923177569755
C         4.58395907154105   -0.25941874581373    2.76065805522794
C         5.02421513532114   -1.40657062165160    2.12663211660987
C         5.96472576491544   -1.32500503545932    1.11111470875831
C         6.46464181181530   -0.09287538618748    0.72300526613307
C         6.02850007418432    1.05857132253298    1.35363583556542
C         2.79723943460252    2.18552052736820    3.51816128109447
C         2.21040203583860    2.45890719069307    4.74752171619262
C         0.85011554520746    2.26921504961648    4.92195945360664
C         0.06789600290275    1.81631233851258    3.87313181942355
C         0.64748614086115    1.55197194927468    2.64132816343215
C         2.00374558484189    1.74228251220344    2.46238895653789
H         5.94788349928578    6.77155893613376    0.97803855984921
H         4.43338424397823    5.12449124762235   -0.48524160200034
H         2.37922059278838    4.32206705361740    1.03134382562630
H         1.41746378599811    5.17949206018956    3.66121241147629
H         1.88689289362560    6.77414022715191    5.49157983616676
H         3.90374878354477    8.16057802535542    5.46911598656896
H         5.53119065886396    8.01222958352854    3.61567349609463
H         4.90911477602127    4.58419080181147    5.04658471212915
H         5.83187881323988    4.70663181343220    7.33943055908217
H         6.77399568049799    2.68248095688284    8.39366176454500
H         6.79034980594248    0.54690167763021    7.16595807044026
H         5.85640265812947    0.41530222421504    4.89322451051262
H         3.83988520943730   -0.31895159822312    3.54357496224760
H         4.63107527386157   -2.36817354923579    2.42314813071274
H         6.30323881646847   -2.22499909997131    0.61929442437812
H         7.19265679303686   -0.02973717969705   -0.07182792793269
H         6.40828786980946    2.03239798878751    1.06457966718206
H         2.81770196747587    2.81827384936410    5.56589371252666
H         0.39902317960982    2.48075264937299    5.88045035831172
H        -0.99353523171473    1.67353903815874    4.01201329330740
H         0.03797142760334    1.20246670685394    1.82067189847948
H         2.46457491243159    1.54331591314567    1.50308794404794

