80
CSD_code = ZIQDAE | q = 1 | S = 0 | Stoichiometry = C33H39HfN2O5(1+) | MND = 6
Hf        0.53372098871697   23.99680783807143    4.22482473422799
O         2.27152042116969   23.59964453710711    3.49865711599971
O         0.61862382344937   19.74171759720390    2.86121147273962
O        -1.10717109651060   24.13295446692959    5.20997680329154
O        -2.12761971470007   25.90679696794631    1.48320301036228
O         1.25842867478943   22.97582173548762    6.15147066970791
N         0.15604948026003   21.78306989765735    3.64275422125813
N        -0.60085511178188   24.62432900660770    2.47681721505762
C         2.94287498058132   22.60275330128220    2.97139181102785
C         4.28271915453758   22.80818634062508    2.58827805376601
C         5.03607724749165   21.80696788439964    2.02448285379545
C         4.48634511070576   20.54400579745892    1.81309785888355
C         3.18319048221592   20.30701750462183    2.17344265591510
C         2.39053354559998   21.31316203844552    2.75282965406401
C         1.02951150990738   20.99060677379323    3.10780986199991
C        -0.73929785405907   19.63457578617624    3.26226477146561
C        -1.08442584949386   21.02301619566840    3.85870785951724
C        -2.25261763271930   21.68830774024619    3.13248424105572
C        -1.37690793524060   20.93999162480825    5.35681344656980
C        -2.06104819684033   25.02210187078558    5.06667648297076
C        -2.83516085307687   25.37939376805657    6.18813824610728
C        -3.87079748555560   26.27792006610243    6.09838923874783
C        -4.19595176112293   26.85962467807302    4.87405187227819
C        -3.47034609379767   26.52978013618301    3.75706745169202
C        -2.39659734004164   25.62164513625737    3.82117157327075
C        -1.67238422535164   25.34986587617926    2.60497273016274
C        -1.28081616973286   25.51432822650311    0.41020993404815
C        -0.12687048807697   24.73427864161952    1.08773206685130
C         0.08895384811135   23.35412010001446    0.47213319734970
C         1.17864788860356   25.53484091015278    1.06826046563013
C         0.66172320066353   23.10613585365320    7.46322283074183
C         1.74278400465743   22.73052195632652    8.46978303083161
C         2.55161302350296   21.70223656870800    7.68572232987505
C         2.52468842459603   22.29771928903550    6.28259547072938
C         1.61767987330165   26.09723803745523    5.96974096253630
C         2.94534912741593   25.74895648617735    6.25503219113847
C         3.43241930464656   25.79295239193702    7.54718817419404
C         2.60902415015459   26.18362887089564    8.59365428327767
C         1.29347171603177   26.53165235736830    8.33146742340148
C         0.80290408967201   26.49252050166440    7.03797036174428
C         1.12146886433671   26.08224412464682    4.57934152565857
H         4.70011955393279   23.78993941381812    2.75339425801748
H         6.05955791360793   22.00182525008629    1.74317660571381
H         5.07905627872834   19.76067855481463    1.36966941939677
H         2.73937719037774   19.33655857603011    2.01677610888591
H        -0.82348510901890   18.82555607263031    3.99176351874058
H        -1.34261865005185   19.38819005639450    2.38424232453169
H        -2.06481415218457   21.73627072322084    2.06207186319228
H        -2.40005592226325   22.69674083688505    3.51425286740097
H        -3.16179733596595   21.11528768445480    3.29922432163730
H        -0.54154499389560   20.47953223416306    5.88205844567413
H        -2.26936757059693   20.34232589419086    5.52718521605647
H        -1.54378329515644   21.94310938330847    5.74443562810078
H        -2.58126813573112   24.91818720262838    7.13094736371954
H        -4.43644100437427   26.53195787966555    6.98172852971703
H        -5.01075100893501   27.56167169091984    4.80590964847214
H        -3.70726379372804   26.96946778689446    2.80128465822768
H        -0.94231048613372   26.41226945731043   -0.11005803206416
H        -1.86184752868196   24.89564028156236   -0.28018446016509
H        -0.83417768916435   22.77889852746591    0.47764943506440
H         0.85122731021166   22.81328755769543    1.02986533131822
H         0.42210949989892   23.46036873753779   -0.55743627770137
H         1.92949279669279   25.03305872519694    1.67814317631031
H         1.01542721684481   26.53839688812966    1.45811314909806
H         1.54812475926357   25.61208573741725    0.04823565079417
H        -0.18552214566029   22.41473740898754    7.52900757291599
H         0.30603687214841   24.13241714102060    7.57969314812901
H         2.35648187453647   23.59869047213995    8.70674356279489
H         1.32289475309198   22.32940950974269    9.38830594082037
H         3.56504029427758   21.58418929359200    8.05857364075640
H         2.05540404530039   20.73133561494036    7.70272641380650
H         3.32857362902392   23.03196625069496    6.15527207747638
H         2.60090070952600   21.54122045984676    5.49636578416289
H         3.60039557535957   25.47255012840795    5.43701250303641
H         4.46395940169321   25.53678843246545    7.74264736587296
H         2.99435138624666   26.23374446702498    9.60034074697480
H         0.65124396956645   26.85204251621900    9.13846002512370
H        -0.21852458650552   26.79410776319198    6.84089639409053
H         1.92569006649514   26.37468126000793    3.89455030902935
H         0.27205318420016   26.76907524697947    4.46481561093335

