66
CSD_code = ZIQXIG | q = 0 | S = 0 | Stoichiometry = C21H17F18LaO9 | MND = 9
La        8.30484565675043    2.88266682408125    2.64990592696078
O         7.20428266220207    2.59198090733517    0.67243019403371
O         7.81270912042688    5.04441837335216    1.55554389475041
O        10.12247054391142    3.46910048664460    1.39484970018929
O         9.29827121311757    4.59433046092031    3.81357579553365
O         7.92841216762367    2.50255121284179    5.02224641966152
O        10.14320204478523    1.82869854871115    3.68046508217123
O         8.99733724575057    0.65212369716387    1.45581653491899
O         6.65763669515619    0.97615446972568    2.96818509896270
O         6.02296592036197    3.65111095132831    3.30775591840488
C         7.67428837856382    3.03118924385878   -0.39827455633596
C         8.04571131199670    4.33994149695527   -0.69135180356597
C         8.07805388031308    5.26204056204197    0.36094870429392
C         7.89605003461379    1.98158211450770   -1.50577015815742
F         7.33361073050950    0.81310907206138   -1.16657473651778
F         9.20152055742864    1.74240486179898   -1.68675303293184
F         7.39104766665700    2.33249603300692   -2.69275910096691
C         8.57426562633531    6.68814583160241    0.03625852974805
F         8.48935332845235    7.01637835177419   -1.25428783531531
F         7.89078159896767    7.60669379844447    0.72461102834372
F         9.86566091884095    6.81718685191190    0.39253544551189
C        11.05314345314977    4.29002468914775    1.54602055830290
C        11.26522240327619    5.17308195286385    2.60337349976251
C        10.35654815780921    5.23580191327266    3.66109380829225
C        12.06759387134787    4.29604302740072    0.38157534762061
F        13.07547804134843    5.15495546187490    0.51586757162388
F        12.60163001519635    3.07636202065273    0.22424800625452
F        11.43990497960347    4.59099694222240   -0.76685739954724
C        10.71156654134868    6.17397559478899    4.83685663781040
F         9.60687635644170    6.65746579593548    5.40894084800291
F        11.37192873228414    5.48135940917165    5.78261127401184
F        11.48072969112626    7.21056830532579    4.50382923466659
C         8.72286189364524    2.64585721786767    5.96769093531047
C        10.10440600807043    2.43617269681811    5.96669807526734
C        10.70815090645812    2.06416246799425    4.76840606089001
C         8.11539451802361    3.09564225828248    7.31708268229324
F         6.81958918020459    3.40525401835387    7.17390958558714
F         8.18235670119769    2.12303696707041    8.23925213307833
F         8.72517788265211    4.16432121322966    7.83285948306306
C        12.24575907524054    1.94422958220330    4.73294400908351
F        12.82896257786776    1.89484040913296    5.93063334040195
F        12.77040673329402    2.99231483486340    4.07556950390690
F        12.61728351904249    0.84348344873604    4.06575603052171
C        10.32462458666455    0.33539460029939    1.04747253476729
C         8.37264682322649   -0.44654897001038    2.10312019796707
C         6.87510970602013   -0.17150346167760    2.15651183955270
C         5.30535186025797    1.41555942470354    2.91169979611482
C         5.16235079130255    2.63810010773532    3.80950580530912
C         5.89734608159252    4.85855330179569    4.05306414000526
H         8.37339217469792    4.61410911550136   -1.67877241523496
H        12.13091279439615    5.81235084120904    2.60176327476742
H        10.68898547761539    2.61094028797535    6.85265021889239
H        10.72355250625821    1.21382340016175    0.54438096161321
H        10.31235581635347   -0.50777587910200    0.34790139557146
H        10.95517376933585    0.09030467930575    1.90703913433430
H         8.54784021972110   -1.36818983043613    1.53080986896568
H         8.77446539418744   -0.56603969526940    3.12068016246596
H         6.34615887190162   -1.03617803667084    2.58260968729573
H         6.51375142562913    0.01698867263884    1.13708368732177
H         5.05059215550137    1.68850170541319    1.87788887843151
H         4.63622595868807    0.61546996353199    3.25890145404900
H         5.44524246865315    2.38247783390423    4.83986562675529
H         4.11976866655609    2.98755805922308    3.79187482710291
H         6.59298388143241    5.57433368154082    3.61565243008051
H         6.14237637180183    4.69810696288843    5.10712309954148
H         4.87454365679401    5.24520885806097    3.97475511847163

