36
CSD_code = ZIQZEE | q = 0 | S = 0 | Stoichiometry = C10H20N2OPdS2 | MND = 4
Pd        3.48294330813756    4.13116164758909    1.67840066412409
S         2.12172782391700    5.35925485883469    3.06580219890815
S         2.52981672555755    2.17264378242445    2.02236641446716
O         2.07358836484830    1.95237363593005    0.62685991207417
N         4.36162818245135    6.02929411336128    0.85672932708779
N         5.04324574446138    3.10162267756110    0.39924701913945
C         2.18889558507423    6.74603551151534    1.86827463016879
C         3.63099570278599    7.11458631946181    1.52100322405185
C         5.81405810117648    6.11940515045213    1.03405999261783
C         6.38540868769675    4.82307832637856    1.62822505625077
C         6.38935352824287    3.60127354658230    0.69533654555253
C         3.93701292668091    5.90145928935669   -0.54302247119273
C         4.70175018174303    4.87529136360584   -1.38374180614976
C         4.56231451910797    3.41430984391491   -0.95145153821228
C         4.87522029301242    1.66845439071855    0.68477280567960
C         4.26895116383292    1.44624436528447    2.06039763048278
H         1.70668574032260    7.59931880308815    2.34957453834455
H         1.60351398907454    6.47282768673610    0.98647711513457
H         3.64174488279052    8.02556934872919    0.89564248951376
H         4.13565234454598    7.33355420895581    2.46639423964860
H         6.04220233011995    6.92662308570995    1.73647665986910
H         6.31622602408554    6.36732607181252    0.09305920662351
H         5.78309787327897    4.57445648497223    2.52366240648906
H         7.41311003724340    5.01152349321537    1.94718065953413
H         6.92962729892503    3.83534218184385   -0.22997176579520
H         6.95153223610585    2.81373306182737    1.20800327031181
H         4.03140789768446    6.88107829238506   -1.04790417062590
H         2.87289225866172    5.61750312554023   -0.54617956053373
H         5.75477353719318    5.14998104792404   -1.45817440137289
H         4.29313085011865    4.93797972490163   -2.39577432498450
H         3.49732905820757    3.13997758274602   -0.97809390943031
H         5.09841043090120    2.79926900293472   -1.69533541677680
H         5.82630787544218    1.12806463320808    0.57687220399128
H         4.16783080109476    1.24600743341797   -0.03705891758014
H         4.20448347980109    0.38221643476250    2.29272491796191
H         4.80143021567601    1.97535947231796    2.85846515462686

