47
CSD_code = ZIRDOV | q = 0 | S = 0 | Stoichiometry = C20H18Cl2N2O4Pd | MND = 4
Pd        2.48682325053244    5.65843027620894    5.42801911177429
Cl        3.71816152604630    3.77264407436483    4.92510856697534
O         4.18617239539533    5.57585625134834    1.73393294834300
O         2.15874838219261    2.14002322384758    0.88481459739968
N         2.29944771673661    6.24593735160842    3.46091881994753
H         1.72568874973620    7.09360557707624    3.53396794919484
H         3.17628929631459    6.38202246800827    2.91957502064434
C         1.60511197431694    5.12030788517183    2.96846839431471
C         0.32389965876745    4.82910620368189    3.42713376399077
H        -0.15977676504976    5.51165989888970    4.12248586157169
C        -0.31771632903995    3.67013022192308    3.01624868226030
H        -1.30908875435029    3.45635283520923    3.38598844536361
C         0.29132637694060    2.76607166511542    2.16334570856709
C         1.58222744914181    3.05875204177436    1.70282655353048
C         2.24506521553841    4.24049216692973    2.06783430107559
C         3.58458474690387    4.52134788655946    1.53673927011957
C         4.12710541108116    3.45053554987736    0.72327374359964
H         5.12709397870317    3.56323048443198    0.34042378961230
C         3.40125070173935    2.35336146395973    0.45717515144761
H         3.76216329720232    1.53223244231771   -0.14786414401680
C        -0.37049554630146    1.49269887279125    1.74118588739564
H        -1.37680920225074    1.43183592202427    2.14447757209038
H         0.20358872132276    0.63738615930243    2.09423492213647
H        -0.41737550129533    1.43097990873917    0.65515506056676
Cl        1.25630213786894    7.54449278589237    5.93157907621731
O         0.78434002222891    5.74889961055043    9.11728779041090
O         2.82551692874836    9.17528446127612    9.97164552684733
N         2.67206962395559    5.07007804799612    7.39486106256154
H         3.24282568866391    4.22034338846904    7.32271936423749
H         1.79381980809039    4.93766766268200    7.93494152317810
C         3.37003035807841    6.19307217580594    7.88823618822100
C         4.65357868612714    6.47847018754575    7.43259333381970
H         5.13563379243683    5.79388844555994    6.73824082115433
C         5.29975187152003    7.63417350900572    7.84554668476692
H         6.29307700440090    7.84325952225135    7.47840912086608
C         4.69305337991102    8.54073667020693    8.69745606198227
C         3.39955888915055    8.25416651811475    9.15455065532760
C         2.73199985010180    7.07570948054133    8.78752874856358
C         1.39015452850193    6.80074158613334    9.31582086666300
C         0.85075231304724    7.87385735685268   10.12838510242581
H        -0.15054775357591    7.76564643721735   10.50907934137815
C         1.58110174685689    8.96756137290914   10.39649430107919
H         1.22275913982551    9.79009085098552   11.00117052498944
C         5.36032160348486    9.81034395624961    9.12240814298676
H         6.36805890002381    9.86618112788572    8.72197841124077
H         4.79174967075848   10.66898038629242    8.76846721907221
H         5.40450505968721    9.87095362781480   10.20863015482792

