108
CSD_code = ZIRFOV | q = 0 | S = 0 | Stoichiometry = C54H50P3Re | MND = 8
Re        9.70949258572688    2.39366614714342    4.08271324005500
P         8.34060666294531    4.48701930643496    4.05775090478868
P        11.18284311118873    2.88059886760249    5.93714594163405
P        11.47807355685150    1.36095254034586    2.69372969156036
C         9.31679861376147    5.82152346466309    3.30226798495758
C        11.09223027010490    7.43579240434078    3.46472808942429
C        11.04771581757097    7.62671951933601    2.09315255800359
C        10.15063866158549    6.90321989844199    1.32449860150634
C         9.29191059696550    5.99876218726234    1.92248503429714
C        10.23767599894443    6.53087011427635    4.06727000436681
C         6.82197145608960    4.53420421007060    3.03372078453352
C         6.20984492656115    3.37696696424012    2.57682426321751
C         5.03334955458295    3.45618245491839    1.85043469545939
C         4.46219267745257    4.68771385017171    1.58306019620792
C         5.06616680476752    5.84612752378796    2.04852797427173
C         6.23709397129201    5.77243225690137    2.77596681472579
C         7.53780042375292    5.24371269989282    5.51532455858327
C         7.59523876676153    6.58526340031338    5.86744225092684
C         6.84095508711990    7.04833884946399    6.93170693088501
C         6.01743590162335    6.18843765657885    7.63703250232471
C         5.94475093643346    4.85161908198880    7.27733572359825
C         6.70172839972439    4.38327079807341    6.22263760452901
C        11.37276937692359    1.77816789903496    7.39459081031664
C        12.21650793101152    2.17575365624128    8.43049784977882
C        12.35083065398259    1.38937066329533    9.55699096210704
C        11.63676547527606    0.20566188890226    9.67002723577496
C        10.78152625827665   -0.18238500918930    8.65461580457577
C        10.64704883215239    0.60242167320271    7.52144500261549
C        12.91813555925400    3.23012374341093    5.49550693028410
C        13.97785432671595    2.41879885273771    5.88588303297430
C        15.27121228621096    2.73590720060402    5.51074429788087
C        15.52544425372768    3.86653661465869    4.75404098819802
C        14.47327841156105    4.66748089116637    4.34257062674451
C        13.17882128483549    4.34204087265137    4.69631812233322
C        10.74221800600754    4.33428563182530    6.96140645013731
C        11.50243915661796    5.48645756131810    7.11603699259034
C        11.07417760910103    6.48656512044411    7.97381606432004
C         9.90451936319306    6.33818045564338    8.69768831014025
C         9.15482404043296    5.18066198522026    8.56432713974604
C         9.56639660107299    4.19107672156317    7.69517357170464
C        12.51161409806969   -0.02361733777830    3.28351141022257
C        12.62128112577176   -0.27596139049119    4.64168906232223
C        13.41009136294968   -1.31386331384134    5.10396250682678
C        14.09287506321783   -2.11136239260778    4.20232488224608
C        13.98260449648599   -1.86893842483577    2.84097303921508
C        13.19649772015283   -0.83151452155913    2.37797345523373
C        12.72303572784080    2.49340157054364    1.99641186402839
C        14.09052525848426    2.27222030364184    2.10104434160961
C        14.98005847676117    3.17826424043988    1.55032468213788
C        14.51808386006540    4.31414047350559    0.90851699311825
C        13.15510593755331    4.54906964377113    0.81887018615588
C        12.26315209719987    3.64390108971310    1.35845869108626
C        10.79606608827954    0.56362752226374    1.19942472258312
C         9.93443321453943   -0.50727764952707    1.42755989299187
C         9.36243425318755   -1.17778278922932    0.36535550880567
C         9.64155055881792   -0.78170512464045   -0.93396481304518
C        10.49335027410786    0.28461269681605   -1.16316053308815
C        11.07307486919298    0.95982647339528   -0.10188805943593
H         8.62192092500075    2.20436308067227    5.32929166714854
H         8.52997219535649    1.52472298069641    3.32260482185754
H        10.74578069130145    3.65377566441666    3.77479178520576
H         9.91596705344237    0.83682797560686    4.61108469548731
H         9.45079631496327    2.89953747662127    2.51053828628854
H        10.29412360637069    6.35429377210161    5.13377891425442
H        11.80254033943261    7.98554840825508    4.06683161271084
H        11.72006899559870    8.33050563553752    1.62376217214698
H        10.12429950584989    7.03813786743220    0.25223405628518
H         8.60419097361142    5.41803061908549    1.32101270538558
H         6.66581332462232    2.41958777283285    2.78814085021491
H         4.56273579527753    2.55163903032767    1.49335071212346
H         3.54548863217136    4.74929063310279    1.01469972905224
H         4.61929864325721    6.80886369264772    1.84568985665835
H         6.70435194417469    6.67582998292742    3.14524489390009
H         8.21509022102104    7.27713899923327    5.31568405563462
H         6.89189295896146    8.09288403817151    7.20479141128086
H         5.42826830124528    6.56043388602252    8.46286712672257
H         5.29543651788151    4.17820807502267    7.81847459606989
H         6.65373555175785    3.34214446860277    5.92508465814605
H        12.76625902115943    3.10466998571624    8.34897505860591
H        13.01127177220419    1.70153921580325   10.35350947359384
H        11.74388715416311   -0.40676382539419   10.55358773596172
H        10.21356117907780   -1.09736672308285    8.74227055498950
H         9.96971308657533    0.30083509657724    6.73263884961254
H        13.80264388783046    1.53924595683732    6.48899144031087
H        16.08566482740486    2.09543568990581    5.81879166145727
H        16.53884085742517    4.11859969634596    4.47743515513736
H        14.65822588211739    5.54393167002831    3.73783642367364
H        12.35949915997735    4.95311293677491    4.33709932373251
H        12.43343782780133    5.60924565252984    6.57980968917434
H        11.66843204051416    7.38334629016218    8.08200414243526
H         9.58163308435638    7.11857976132802    9.37110623284788
H         8.24883366551260    5.05118939059895    9.13752205183493
H         8.98270741760829    3.28538159378632    7.58218960468507
H        12.07034663455718    0.34495288741196    5.33649887979382
H        13.48580663900366   -1.50117343508639    6.16597473619083
H        14.70806653248558   -2.92571686291613    4.55657214757823
H        14.51255323221748   -2.49471293081693    2.13715395091203
H        13.11048043194066   -0.64335517876684    1.31623950449576
H        14.46603391951036    1.39952065016806    2.61579093681189
H        16.04210452520879    2.99540122548301    1.62964328586724
H        15.21839683854474    5.01907688754705    0.48393250997072
H        12.78578042651102    5.43939553900467    0.32992954056904
H        11.19798962555567    3.82934347260124    1.29533240749820
H         9.71663323806173   -0.79545848362241    2.44834340778260
H         8.69579249639121   -2.00838490653894    0.54669260359827
H         9.19304727392000   -1.30319829806408   -1.76705860900622
H        10.71132145442346    0.59499493096592   -2.17533507482698
H        11.74094468583845    1.78872636631055   -0.29206060713482

