35
CSD_code = ZIRKEQ | q = 0 | S = 0 | Stoichiometry = C6H24B2CrN2 | MND = 8
Cr       -0.79342094095779    0.09707983419402    3.29418030189552
N        -2.19292210649510    1.87795405864645    2.82817408562834
N         0.60667998494372    1.87040247198597    3.78727795855006
C        -3.26933566275999    2.13924237795373    3.77896677830369
C        -2.79412323075805    1.60990538989923    1.52500592029680
C        -1.30245518465419    3.03790569754816    2.74809647321044
C        -0.28455185845822    3.02814507870064    3.88789916207665
C         1.68156082601811    2.14821532912851    2.83944796771837
C         1.20999178152778    1.58127132041365    5.08493258850775
B        -2.29483892828816   -1.02717139720222    4.52019761061543
B         0.70925447445838   -1.00811043156681    2.05122905147429
H        -2.01757252508653    1.38573627445388    0.79494653780466
H        -3.38660235188046    2.46539410849541    1.16911280413383
H        -3.44561218394065    0.74175278897517    1.60859659107434
H        -3.88730002047076    1.24936142164383    3.87240209211402
H        -2.86481143984256    2.36558385598293    4.76290259986447
H        -3.89466810003924    2.98207133515128    3.45043431196227
H        -0.77025303059188    2.99906085584391    1.79477207913187
H        -1.87520459582517    3.97909111306455    2.77669478502910
H        -0.81674634534030    2.97194342715850    4.84036334607872
H         0.28757576655389    3.97007962267532    3.87598769736097
H         2.30683323475000    2.98588246675253    3.18102967229476
H         2.29993489271912    1.26040102367290    2.73036812008776
H         1.27556123473062    2.39058143820083    1.85994676622002
H         0.43469856453307    1.34452814910290    5.81236057783329
H         1.86194074574491    0.71507732549791    4.98599019886607
H         1.80243776748160    2.43117183634717    5.45404477529624
H         0.52029776594829   -1.14977194529799    3.31502900645569
H        -0.03835354375113    0.02317096126804    1.72887535396230
H         1.85188031057754   -0.74056061405753    1.84466453170164
H         0.35046527889245   -1.96558227923491    1.45122816152844
H        -1.54746926499545   -0.00025377295764    4.85834449518426
H        -2.10773119167364   -1.14762275143848    3.25387374720482
H        -3.43710741903794   -0.76368125309087    4.73289502811083
H        -1.93433270368205   -1.99405511786460    5.10372882326214

