59
CSD_code = ZIRNUL | q = 0 | S = 0 | Stoichiometry = C22H27MnN2O7 | MND = 6
Mn        3.17375044834682   13.50804574882496   15.58605827518098
O         1.99244205158680   14.55937560394998   16.43949395596746
O         2.41086931744255   11.90718842385995   15.78374444212285
O        -0.40643108559974   15.17892743439603   17.31418848490314
O         0.84481779908977   10.10388980680731   16.88163119776684
O         3.90709279283296   13.24435247011954   17.80047943703100
O         2.24087221559848   13.70320068661244   13.79860808484994
O         3.42177906046655   12.17812128523603   12.70248484165083
N         4.15776176667740   15.14375561074055   15.14157462036031
N         4.79627952903200   12.70767090223476   15.00377469221539
C         1.53051093047125   15.72103876535843   16.11377740667911
C         0.23871862057914   16.12185355943246   16.57514840722905
C        -0.25940149711778   17.36385285812516   16.24629617552111
H        -1.24513725142603   17.66180238986686   16.56852482035263
C         0.50779529444988   18.26285645928782   15.49989004364892
H         0.09575963928593   19.23189715193166   15.26342553905399
C         1.76687810073342   17.92236817367936   15.08050890904248
H         2.36247865145988   18.62133258378800   14.51196872608579
C         2.29818090528425   16.65345180153882   15.36665161849470
C         3.62571617962288   16.30959380698114   14.97043551358914
H         4.22670879038218   17.11329359759713   14.53812390287967
C         5.55767403293997   14.96836347408038   14.80924204923626
H         5.90512824039486   15.72030422088164   14.09005571419715
H         6.14313964766907   15.06109144325768   15.73342276056946
C         5.70713309204019   13.54876004404812   14.25513788385845
H         6.74316616411115   13.19569663200886   14.32555879471328
H         5.38514471757790   13.52002841657838   13.20739241449026
C         5.13700471613735   11.47026469654722   15.19478197277876
H         6.11686410896729   11.13509011810365   14.85248716733386
C         2.93560344632125   10.76614691501624   16.05595646873681
C         4.30512621069925   10.47610109740997   15.77916413651074
C         4.79593946946975    9.17439966025876   16.00219252983941
H         5.82754073557355    8.96268187643728   15.76314544931017
C         3.98983550565672    8.19834394076933   16.51762434611207
H         4.37428060303007    7.20538258404458   16.69304434940603
C         2.64931464741374    8.46926295929758   16.82517272614572
H         2.04019278956670    7.67820756518813   17.23383050590063
C         2.11924409411957    9.71639794348083   16.59792288913192
C        -0.07590972472057    9.13899637305784   17.33939099488971
H         0.25274976052375    8.72845043714123   18.30614740917612
H        -0.14931007980193    8.31328381867004   16.61766925268106
C        -1.42309891032113    9.82834123815591   17.49196779808834
H        -1.34645733778471   10.63636436355341   18.21450012571061
H        -2.17087133019586    9.11542352188228   17.82818493738348
H        -1.72850110277311   10.24685189741469   16.53714024783946
C         2.48342653529952   12.96152789617135   12.79199256542248
C         1.49538840150986   13.13950482584428   11.63597107108836
H         1.22176223357860   14.18675141746380   11.54445179387464
H         0.60127900413022   12.56226735194130   11.85982103872397
H         1.93901380954966   12.77291694420376   10.71486162214851
C        -1.77970170908130   15.34992750882566   17.59176113917777
H        -2.32812265627050   15.56403880920011   16.66422019207019
H        -1.92599060902094   16.19038273410426   18.28677861019742
C        -2.28285885443750   14.05597226064085   18.21345431554674
H        -2.09759454685323   13.23060288512621   17.53188251210139
H        -3.34825991463236   14.12689597026650   18.41368628253849
H        -1.75609174137461   13.86140261910975   19.14375406160499
H         3.18795561235996   13.70041578960033   18.25829222077136
H         3.77281867942915   12.30168862984918   17.95755055607247

