53
CSD_code = ZIRRUN | q = 0 | S = 0 | Stoichiometry = C25H24ClNOZr | MND = 12
Zr       -4.64287225274982   -2.73704518105494   -1.40195190500202
Cl       -6.93486692905412   -2.19132807670819   -1.58174459845797
O        -4.62633603461210   -2.51060319668934    0.46009348191519
N        -3.29924204633756   -3.85435637585546    1.77440043487209
C        -4.35385869891191   -1.08691755566611   -3.28665090556056
C        -3.12091837981924   -1.75536822360417   -3.14896937207907
C        -2.58741989798127   -1.44278568094285   -1.87526376963964
C        -3.47654521922611   -0.53316315659948   -1.24929995414540
C        -4.56633395357225   -0.32195506398040   -2.11622989879663
C        -5.32461274476937   -5.11249134393398   -1.18110058584982
C        -3.91335112507196   -5.07870784257440   -1.05189484769182
C        -3.37167868560320   -4.69609308009854   -2.29999353618484
C        -4.44569446832745   -4.50166036718197   -3.20048161153537
C        -5.64528955359994   -4.76726484940530   -2.51323725455365
C        -2.18656313284572   -3.09051566238723    1.38656311324266
C        -1.08128936884274   -3.70000541821760    0.78764880691729
C         0.02442855883977   -2.94717874355038    0.44052067006732
C         0.04476571625239   -1.58045644158052    0.67194140268887
C        -1.05287164032557   -0.96931587799661    1.25638259400515
C        -2.16278146200588   -1.71288800713269    1.61272975156551
C        -3.11022944082746   -5.06114150344494    2.45687112596921
C        -4.00036026739116   -6.12668796955691    2.31327415500525
C        -3.78292368304862   -7.31401875563525    2.98483870197540
C        -2.67908714230625   -7.46784932775879    3.80737907897453
C        -1.79313653201582   -6.41419293943178    3.95695302730928
C        -2.00425334468086   -5.22109960773813    3.29372348399169
C        -4.58879550270067   -3.30686459417276    1.52673131996937
C        -5.64336986334665   -3.54139580082249    2.32003210496211
C        -7.00875162372536   -3.01819566943137    2.00615289799423
H        -4.97254441174690   -1.05982922567859   -4.17656719288075
H        -2.60212915095942   -2.29531692144764   -3.93157733000106
H        -1.59643180523627   -1.70312238877401   -1.52307078673576
H        -3.30155978495404   -0.00897748630129   -0.31876404508669
H        -5.38065464984637    0.37428027653862   -1.95460123887663
H        -6.03415077617057   -5.45167505263674   -0.43386381607375
H        -3.34467654301863   -5.46318540570857   -0.21685314346782
H        -2.31779566103611   -4.70201893634451   -2.55335064586699
H        -4.35988710373128   -4.32764342613477   -4.26647762213385
H        -6.63654960882832   -4.79042349353962   -2.94915908523529
H        -1.08267001548116   -4.76820061958373    0.62366826152617
H         0.87643589728457   -3.43065175644710   -0.01477082758378
H         0.91197816811860   -0.99707762203645    0.40275085472556
H        -1.03612066977401    0.09308742515855    1.45023264137205
H        -3.00852478124696   -1.24363928895281    2.09542172850802
H        -4.86358100294909   -6.01820322102580    1.67526063857044
H        -4.48012557365413   -8.12899832559609    2.85843557067906
H        -2.51329686882011   -8.39799155193956    4.32878702955908
H        -0.93336920385265   -6.51719861634332    4.60242293558922
H        -1.31451794733665   -4.40049456059614    3.42405863332287
H        -5.52269093900784   -4.13226204223550    3.21435976060893
H        -7.00204586340633   -2.50936389984297    1.04068873152298
H        -7.33786875024146   -2.31560713402688    2.77242673954918
H        -7.73298423552970   -3.83304041339263    1.97412429646602

