131
CSD_code = ZIRSUO | q = 1 | S = 0 | Stoichiometry = C41H73O12P4Ru(1+) | MND = 6
Ru       21.34349710404663    4.71621618672453    0.06806003130009
P        23.14179946366038    5.73233908185624   -0.91188960698383
P        19.96583078245479    3.32923162367062    1.22844469545495
P        22.02248435930588    5.59419636763373    2.07362237670790
P        20.66823051715773    3.77635432454997   -1.90446018338361
O        24.19926364662177    5.78584889512739    0.29845092152635
O        23.14795787547643    7.28365807811386   -1.29147567437875
O        23.98463922389595    5.21246030412086   -2.17251808671672
O        18.50229754544613    3.92263377530136    1.44876462519511
O        19.76583306584028    2.01603388224170    0.27374121998483
O        20.17814382019760    2.69741254215967    2.68172387007624
O        22.59550777563032    7.07510468536634    2.32923244822777
O        22.95789708194577    4.82250807912895    3.10104751572727
O        20.65254311798195    5.54976572636408    2.91387562581107
O        19.14782138514644    3.51561780629503   -2.35023795733498
O        21.29980091183630    2.44025994896543   -2.50680738012242
O        21.21308836518307    4.85052384702670   -2.98916177147688
C        20.09386877290653    6.13170972554197   -0.11713996957336
C        19.21980773218305    7.10088877901561   -0.10585991901333
C        18.43379453720139    7.33436778235530    1.17079279149644
C        18.94291094374474    7.98842475523970   -1.24878823886719
C        18.54260557769362    9.30895137508369   -1.05687246231524
C        18.28509442594424   10.12748590585456   -2.14130352003351
C        18.41627072937096    9.64422038210538   -3.43208006251803
C        18.80946957253974    8.33132401960989   -3.63286319241012
C        19.07110645002110    7.51002145979263   -2.55257317018299
C        22.65267787350448    3.18775497749185    0.31065308094882
C        23.43255779511762    2.26502235675291    0.42241576610668
C        24.34538769702794    1.18508572159595    0.55267526203815
C        24.85104909176852    0.55137101359923   -0.58450535755052
C        25.73541001770096   -0.50213653325772   -0.45863434474796
C        26.12964121209562   -0.93838612147031    0.79635061855834
C        25.63490862656489   -0.31267604977079    1.92938887313323
C        24.74952427343047    0.74136819605307    1.81343772195001
C        25.49001149754634    6.39954006818103    0.14249922521296
C        26.60481202730487    5.36781841218186    0.08570153399936
C        22.48175778556935    7.83682726199764   -2.42713670614245
C        22.21964351403201    9.31054775552971   -2.17112268873139
C        24.29757614001202    3.84565238061875   -2.44069835535467
C        25.12478098248347    3.79357118842614   -3.71414072748352
C        17.44863448392859    3.32520469477142    2.22195152906895
C        16.28965946215894    4.30430318678735    2.27726151343109
C        19.34203853545231    0.73576267747142    0.76202759651683
C        20.43307685551544   -0.31385086554327    0.58211660042116
C        21.35654792593755    2.05471255392959    3.18113898425541
C        21.42967503952649    2.27382058440566    4.68237379754235
C        22.10166979626955    8.24506882744832    1.67996835851634
C        23.23866846758931    9.23508299158269    1.49701709914801
C        24.37653601161686    4.67046520894714    3.02497350419684
C        24.85935776571432    4.10076007532639    4.34788630891795
C        20.57070860563088    6.06901917295988    4.25124247102289
C        19.30441209347111    5.53998539385353    4.89951988600057
C        17.97045236948275    4.11029478150712   -1.80852645052491
C        16.91425558088840    3.03247418532056   -1.63116481987351
C        20.61853472263550    1.20183824340483   -2.73600769477045
C        21.67047070587264    0.11887776542960   -2.89611918321051
C        21.03147534664930    4.61125725523948   -4.39398320819399
C        21.67727078168868    5.73483049125485   -5.18292954349678
H        17.37638825453338    7.43389611398239    0.93267289666507
H        18.77419949752280    8.24362165851430    1.66454341232690
H        18.58223767477197    6.49230610373521    1.84090638405201
H        18.43891694861848    9.70774278026401   -0.05935088890770
H        17.97787422385628   11.14920001685896   -1.97604721235088
H        18.20850281012371   10.28449862026292   -4.27542742569509
H        18.90157215652603    7.94383929598802   -4.63726342872435
H        19.36434049291970    6.48201975205982   -2.70529280429048
H        24.54473198181891    0.89666388901488   -1.56219833088234
H        26.12056724519623   -0.98657732495497   -1.34402090021786
H        26.82099513542384   -1.76167697343537    0.89091071156668
H        25.94176812349532   -0.64862116909060    2.90914952626338
H        24.36362579324395    1.22852479012345    2.69855677772977
H        25.49350415144386    7.01094332416667   -0.76318783798471
H        25.62128583863754    7.05144512775606    1.01089410565382
H        27.56389877064681    5.87929231952111    0.07715878349660
H        26.52433711296844    4.76480657179558   -0.81370699695267
H        26.56364842396207    4.71170686083301    0.95092006860873
H        23.12793892456053    7.70842910380563   -3.29977494079458
H        21.54534213585544    7.30024651789363   -2.59345790495720
H        21.76145725285644    9.75364048861477   -3.05061176705681
H        23.15090397513976    9.82738006627074   -1.95661511000768
H        21.54605138038244    9.43541812641645   -1.32795457311306
H        24.85607192596745    3.42954696337177   -1.59650306084658
H        23.36936180563967    3.28004450660585   -2.55098244959505
H        25.41540596529354    2.76706158060510   -3.91885328557899
H        26.02205734193904    4.39841539485120   -3.60750758097096
H        24.55089637889322    4.17228423935043   -4.55539508337406
H        17.81719840034999    3.10266986833598    3.22577601329898
H        17.12981569065260    2.39348485167748    1.74393201812744
H        15.45966152653672    3.85494562164414    2.81522295836267
H        15.96685998532248    4.55732928664010    1.27123437734195
H        16.58717774775031    5.21611960906882    2.78589150396450
H        18.44429256235391    0.45217708072535    0.20167922271319
H        19.07354226126376    0.81966635170325    1.81928841308186
H        20.23020344448296   -1.16677845273911    1.22472474737886
H        21.40055144606411    0.10951247048324    0.84167929930680
H        20.47951580105629   -0.65989746371134   -0.44523616823818
H        22.23472624539772    2.46460993267721    2.67906374820810
H        21.28640381136854    0.98452062350902    2.96128621682947
H        22.24532904451770    1.68614830788362    5.09497575627746
H        20.50257755522655    1.95776778320061    5.15481585301647
H        21.60107933180563    3.32338218935846    4.89919354482894
H        21.31838745731896    8.67937950833571    2.31189691312841
H        21.66806621075553    7.97245270677736    0.71357991045632
H        22.84465126863808   10.18043119238008    1.13456337731175
H        23.95222403403863    8.84935050425082    0.77557997279272
H        23.74280131259909    9.40223015609652    2.44538955492827
H        24.82903282909644    5.64556781290824    2.83779306057593
H        24.61172375936980    3.99736437940117    2.19548801919246
H        25.93782957404564    3.97459243687924    4.31656287700911
H        24.39654166307692    3.13655143224060    4.53801618765557
H        24.60710816639735    4.77354412909138    5.16318307170148
H        21.45511439906582    5.76090310081338    4.81451678758610
H        20.55263288394332    7.16279520455988    4.20837144646761
H        19.25570632058873    5.86992424107590    5.93359752407809
H        19.30035061077828    4.45463667606556    4.86836021926279
H        18.42889641470024    5.90578100172655    4.37038601661382
H        18.20339595080893    4.58672314712389   -0.85198305180565
H        17.61795318382638    4.87104981427879   -2.51348925377866
H        15.98648362858108    3.48108255818476   -1.28806208032039
H        17.25025540724097    2.30275714382333   -0.90056644721585
H        16.73303277849687    2.52452272564657   -2.57498483395584
H        20.01642895158913    1.29438228181568   -3.64522322071639
H        19.95581596544291    0.99847277921994   -1.89583420766346
H        21.18965545100541   -0.83834991817691   -3.07867166414759
H        22.27742671468943    0.05220738185061   -1.99738520035669
H        22.31955034858712    0.34920952566210   -3.73717336405115
H        21.49286447681632    3.65277490413557   -4.64997341764971
H        19.95976783156115    4.54941344649204   -4.61131527682801
H        21.61369710625919    5.51297564854411   -6.24492150694893
H        22.72155227711450    5.83053899179439   -4.89966200843715
H        21.17758858030170    6.67935108957848   -4.98718356985753

