42
CSD_code = ZIRTID | q = 0 | S = 0 | Stoichiometry = C15H17BMoN6O2 | MND = 8
Mo       11.48312987792491    2.01367383356915   12.44209202525267
N        11.54869727657037    4.16987020372416   10.23823044971843
N         9.63762180349795    2.80693792580674   11.84028760690807
O        14.52500199530954    2.15223872950033   12.90210069051550
N        11.11060345775240    1.91438665265939    9.38309152362048
N         9.35293846775323    3.17588550781511   10.59340905066353
C         8.51088389292567    2.85759479691068   12.54017280067326
N        11.59175676634627    1.20782443746028   10.40840055443666
N        12.04336100533639    3.80679162445366   11.42130046292604
C        13.39875056587062    1.81007519938549   12.80150505331005
O        11.41905864242374    3.36374338780171   15.20125453189078
C         7.46337806227933    3.26483691660387   11.71800074283347
C        11.41316984421931    2.89444852705290   14.15135088185176
C        12.11671669792170    5.31412799166702    9.83611956219929
C        12.92672070598731    0.27588707083708   13.22603436296483
C        11.36966075494278    1.28932940296567    8.22464004795471
C        12.16560274115079    0.12729584757387    9.89707485598577
C        12.05013680543480    0.12659459513015    8.50820131422948
C        11.49084350865047   -0.06991666520100   12.99901412225525
C        12.93354934256778    4.71944641684645   11.78299984121283
C         8.05000039091559    3.46250278363095   10.48389032321016
B        10.48389859654782    3.29677963793078    9.56854184629886
C        13.01973110032631    5.70603174363217   10.80277892218808
C        10.53665706219588    0.45072327556855   13.87366667999699
C        13.41612462953472    0.13492283188679   14.66778400291648
H         8.49686680447140    2.62019306337113   13.58782361106869
H         6.43515778767432    3.39868893666926   11.98360082669343
H        11.84957895286191    5.77194033336422    8.90502079332838
H        13.56433825006821   -0.33786657997394   12.57411677228094
H        11.05816470213935    1.70340382273106    7.28754669741401
H        12.64601793009386   -0.61142453914742   10.50988922614171
H        12.41131962090765   -0.61109125110562    7.82199279671670
H        11.24229342361167   -0.88941343225969   12.32397476281249
H        13.47064484673944    4.63256117530378   12.70861282365625
H         7.62485924838713    3.78454879680520    9.55491366472160
H        13.64624592317048    6.57369539296279   10.79986257862854
H        10.76797012277478    0.62766231603075   14.91689931841700
H         9.50970173499419    0.12650331845845   13.71822631617933
H        14.48873249345019    0.32146421992302   14.70708129626249
H        13.21984053594918   -0.87333693000505   15.03308340875609
H        12.92826581103674    0.85227285884154   15.32520192929140
H        10.10750781728526    3.74846582282121    8.54341092162043

