43
CSD_code = ZIRVAX | q = 0 | S = 0 | Stoichiometry = C15H17BMoN6O3 | MND = 8
Mo       -0.02420019786914    0.34722735283415    3.99786646437075
B        -1.14894648700589   -2.39954421345137    2.54153164470846
C         2.19882198046164    1.01536607118607    4.06704111067415
C         1.81295668856700    0.33772779025547    5.22756507515168
C         0.91285813611723    1.03875309942638    6.10368021005184
O        -0.00071544085298    3.18952508061814    2.82949423465342
C         0.07715409780679    1.18206598181651    8.32988694802622
N        -1.92086409157087   -0.11694452836931    3.15093006160409
N        -2.22421241599702   -1.30350000376632    2.62526372231296
C        -3.00747823249064    0.64281310470510    3.08148167707693
C        -4.04568935103719   -0.07433478505261    2.49321306007676
C        -3.49786889459644   -1.31133219685237    2.21638814463114
N        -0.21933468454763   -1.69651077693722    4.75420191703140
N        -0.68831317128310   -2.66948186880376    3.96822636564930
C        -0.76032481514717   -3.82257168202227    4.65154571928842
C        -0.32194877816248   -3.58621595556354    5.93496327361284
C         0.00380585535807   -2.22998498367822    5.94597926174099
N         0.52762949137198   -0.60803658744120    2.15867491725159
N         0.00513173368198   -1.76712619017547    1.76049584799206
C         1.37046172411390   -0.20945564776880    1.21481849004085
C         1.40800617162889   -1.14487775287300    0.18346333444396
C         0.51465743434596   -2.12104479080296    0.57324176598837
O        -1.68763766382318    1.93949967323843    6.04034223562855
C        -0.01136714950317    2.10644396229713    3.21660762496612
O         0.72781532880863    0.43230140006807    7.32446799769739
C        -0.99246175708405    1.27666030053551    5.38583071967753
H         2.33510639144429    2.09311594488775    4.10756024409705
H         2.92848368783908    0.51508425727699    3.43761621990816
H         2.25185270267571   -0.60277103109835    5.55051221402865
H         1.07377937181005    2.12360504813917    6.18355682058609
H         0.30373451511098    0.68303889050130    9.27162733133771
H         0.45629995716125    2.20883084588046    8.35893378330424
H        -1.00526745748037    1.20346103585025    8.18198887366828
H        -3.00134115318221    1.65314555095474    3.44739233666319
H        -5.04419168444958    0.25770277143638    2.29783269927680
H        -3.93218527391482   -2.17813146634523    1.76041538839913
H        -1.11286393597577   -4.72177578281041    4.18855569043552
H        -0.24793370988538   -4.28337849515891    6.74385534460397
H         0.37133449314681   -1.64193780684829    6.76410853453534
H         1.89856279857319    0.72165373828165    1.29383746320593
H         1.99386024982821   -1.11071160237925   -0.71165120861006
H         0.21591968263074   -3.02670336527537    0.08553386033981
H        -1.55448614662369   -3.37725038671764    2.01502257987456

