38
CSD_code = ZIRXED | q = 1 | S = 0 | Stoichiometry = C13H20AuN3P(1+) | MND = 2
Au        0.81315839427250   10.38417763494903   -0.21093636639257
P         2.18943754905918    9.97047232579275    1.79264719868035
N         1.83291772396104   11.36954031389999    4.16107347077174
N         3.73406357055262   12.13901041415623    2.83639521065407
N         3.81731000378393   10.04594211752899    4.09086343569578
C         1.08996450840309   10.69362071476257    3.11798474835031
C         3.25279007613728   11.51039646199782    1.58668762877991
C         2.53921682401826   12.50614276832294    3.71188863977998
C         2.70151170412644   10.48007967024938    4.91209389005733
C         4.57397101997462   11.14825213916628    3.63848643348538
C         3.39931452005336    9.15931352800665    3.02724248923125
C         4.52070700890495   13.33593689834358    2.52046935416264
C        -0.20019642397224   11.73312190229312   -1.36827552783423
C         0.08431349476776   11.87899870203599   -2.72214429373999
C        -0.61161840742331   12.77939358797800   -3.51282072497813
C        -1.61137889400434   13.56089185613401   -2.96290148944046
C        -1.90846653734521   13.43272072164723   -1.61853168218092
C        -1.20815203169973   12.52984344951124   -0.83427575597017
H         0.49912527042765    9.88988434714709    3.56619737876993
H         0.39447417186733   11.39963942732364    2.65268264542789
H         2.66064501541554   12.24257642739599    1.02551030048308
H         4.11912398752539   11.24189853891740    0.97122364043416
H         2.93102602452838   13.05833810459818    4.57164157512001
H         1.88474577260848   13.15785188899232    3.12571054780630
H         2.13447493615096    9.61118552771149    5.24491260923946
H         3.08380651647940   11.00970801249932    5.78910230517631
H         4.97926498018304   11.69456520287460    4.49556235899109
H         5.39445119452085   10.81256764778069    2.99782166471380
H         4.27882242936725    8.80539755116402    2.47938603718644
H         2.90942428708295    8.28389004958253    3.46228273703393
H         5.38033213665958   13.06729092610553    1.90749968607941
H         3.90896799835196   14.05169945377617    1.97234800854438
H         4.87631951028740   13.80622851929496    3.43622759919804
H         0.85795523519432   11.27914475237684   -3.17954017694826
H        -0.36955693040547   12.86445227412140   -4.56195906238750
H        -2.15678677199253   14.26168767240967   -3.57703597121404
H        -2.68965279110643   14.03241792646862   -1.17431307060055
H        -1.46852707674819   12.44782054269266    0.21309252783250

