109
CSD_code = ZISBUB | q = 0 | S = 0 | Stoichiometry = C48H40N8O12Zn | MND = 4
Zn        8.42849766575257    5.08866239437246    0.00000499043961
N         8.32159670985522    4.91361670580516   -1.95220166722011
N         6.63951041455417    4.29785224899971    0.16897047962918
N         6.40117080832979    4.34753141626696    2.55395397306410
N         6.15027449015839    3.91619366460095   -2.14853205287796
C         5.86453980767323    3.87654493239300   -0.86746929094890
C         5.97992316382592    4.08157205413038    1.33924628665965
C         4.68831982068856    3.48544542548631    1.05429825333652
C         2.47134888066097    2.36451450926964   -0.14125977940079
C         3.51383111029825    2.78350344990875   -0.95397558385177
H         3.47875183831387    2.64346576865626   -2.02246577996159
C         2.49772531196510    2.58124681675538    1.25772220298042
C         8.01802751370908    5.15943805449948    4.17988862781461
C         3.62977359218166    3.11170978854189    1.86327758079047
H         3.66032120541310    3.24667749920412    2.93163764057952
C         4.61864175694685    3.35268576513405   -0.34464612503477
C         7.56856407173389    4.88146826952745    2.83053571636936
C         9.29770682008557    5.73216444265421    4.06181195293653
C         7.27061016565312    4.39159530700480   -2.64098177284688
C         7.44701661611987    4.93641585292132    5.42088132191681
H         6.48541562424887    4.45737836585189    5.51235549683339
C        10.00051505167882    6.15224610360857    5.17722706180053
H        10.96328945603189    6.62801325845679    5.09217034776167
C         0.59644134245672    2.21738019625230   -1.63646828757747
H         0.61945676460877    3.31232329424027   -1.59427957667618
H         0.93405699355292    1.89137849485858   -2.62927974119223
C         9.41726208394730    5.97302218052983    6.42520386943732
C         6.69777681306300    5.69299100900725    9.78697791394876
H         7.04572575206614    4.75624512079786   10.24452105628488
H         5.74201946723809    5.98153068428922   10.22946188063222
C         8.17130557797576    5.31068010787466    6.54257315232333
C         0.15410332322865    2.77165211756515    1.63507176063035
H         0.27339293349341    3.59344314811531    0.92075008147676
H        -0.29576411005934    3.18207308408356    2.54455554441498
C        -0.82445366740037    1.69907237270262   -1.37958815796727
H        -1.49161624979340    2.04441768620658   -2.17216245148095
H        -0.79044216536894    0.60055139807652   -1.38166770448396
C         8.94527465352415    6.54169213273348    9.76026794025452
H         9.18427299813398    5.47647579911381    9.69293564507336
H         9.51576052647595    6.97803995167215   10.58569680486315
C        -0.79912880367195    1.71722784943183    1.02283727245988
H        -0.25795689516490    0.77877385905301    0.87204632993181
H        -1.63036345806461    1.53655978550974    1.71104772175329
C         6.51960205966255    5.44740257475631    8.28313877392286
H         5.74479593600260    4.68584946084675    8.12290632367948
H         6.22099291977398    6.37177783483387    7.77554885485370
C         9.33641436176264    7.24442512530174    8.43791774686925
H         8.42777370654347    7.63052535786429    7.96352201222451
H         9.98596543956180    8.09712359556497    8.65910680023585
O         1.40438758787785    1.65634897308254   -0.61961400020030
O         1.42227644771373    2.27921666958984    2.04810628970036
O        10.08008793416119    6.44996648558968    7.52307792852847
O         7.77518723399868    4.99641686223192    7.81267744510509
O        -1.39485794661660    2.16611134916776   -0.18206827139484
O         7.58249938016797    6.74231869974386   10.09312261035269
N         8.53573791352802    5.26294986078494    1.95225697668792
N        10.21728152117489    5.87995142019220   -0.16897716868408
N        10.45428613239258    5.83313460927261   -2.55418828148738
N        10.70854717684841    6.25704589930871    2.14884490823082
C        10.99200356316880    6.30181516990651    0.86742859152288
C        10.87458780107454    6.10116315557740   -1.33961019316411
C        12.16351194715160    6.70326872388752   -1.05509219862683
C        14.37606386435129    7.83384012756975    0.13971509307984
C        13.33754388311068    7.40612655675829    0.95300422040533
H        13.37386408603415    7.54332730259592    2.02182409008536
C        14.34811138868038    7.62188869278293   -1.25994015327729
C         8.84291636446764    5.00886047720030   -4.17938604622159
C        13.21819249869387    7.08595897585495   -1.86483504403821
H        13.18628768048026    6.95456282181286   -2.93360040711882
C        12.23479007125666    6.83255537951627    0.34411089821494
C         9.28909936664346    5.29426033882074   -2.83049059201816
C         7.56499027999960    4.43231028649231   -4.06094925255557
C         9.58916381662374    5.77953997300116    2.64141672294015
C         9.41582493823426    5.22722819007729   -5.42036783903718
H        10.37572808176890    5.70955899243189   -5.51238067676437
C         6.86659905491068    4.00240203736367   -5.17542796515864
H         5.90575120326882    3.52287694817888   -5.08969725913307
C        16.25605870021024    7.98591475399329    1.62836066471037
H        16.24365992497824    6.89118273179365    1.57707245029607
H        15.91875731888734    8.30013918936653    2.62507454542614
C         7.45246590809051    4.17590714424273   -6.42292261690432
C        10.17964901531087    4.44817746650618   -9.77921702087080
H         9.82593386725750    5.37879531174876  -10.24477456859915
H        11.13843772474118    4.16315769419696  -10.21741188479941
C         8.69560721605212    4.84339139302747   -6.54143114298878
C        16.69273907605330    7.45330450966424   -1.64419304309032
H        16.58332215504157    6.62815784874454   -0.93217819234681
H        17.14419683201575    7.05007396071814   -2.55609936684480
C        17.67089036537034    8.52021917892881    1.37101981351415
H        18.34377622890329    8.17662127996159    2.15949055859486
H        17.62553077410834    9.61829528193432    1.38038740261314
C         7.93793568782506    3.58423742977048   -9.75233742425648
H         7.69148977468174    4.64833040670763   -9.69472392817879
H         7.37323035026372    3.13711454200983  -10.57598058318732
C        17.63721118668796    8.51514852893639   -1.03120558493282
H        17.08662186203175    9.44697815412474   -0.87353711935781
H        18.46343962802069    8.70808781826209   -1.72206939900654
C        10.35275097977792    4.70666639630957   -8.27692915142733
H        11.12125861287278    5.47544812318448   -8.12095811388292
H        10.65738233597452    3.78855675730474   -7.76161874739178
C         7.54685998901048    2.89007136148922   -8.42546683069363
H         8.45628699114994    2.51329726402816   -7.94510095987431
H         6.90306408663097    2.03171514037078   -8.64157711136156
O        15.43906662990648    8.54760216028850    0.61906258050773
O        15.41883431832838    7.93452565570918   -2.05248888666782
O         6.79571644908312    3.68784229478864   -7.51959275992075
O         9.09269980995631    5.15146339243389   -7.81264637940116
O        18.24286847618614    8.06694304400608    0.16895424444479
O         9.30315425400875    3.39015249132830  -10.07901331676391

