63
CSD_code = ZISHAM | q = 1 | S = 0 | Stoichiometry = C25H35AuOP(1+) | MND = 2
Au        3.21471460908726    5.62334303184445    2.37907821525020
P         2.73755111941792    4.76881205794618    4.45749272442192
C         3.73472125654284    6.38217244329756    0.50065577143547
C         5.12374627850314    6.44173839419341    0.11639836062010
H         5.81475250539856    6.06957617077871    0.85854745487397
C         5.52529969721144    6.23713708595452   -1.35136831877012
H         6.42001615981083    5.65836081710030   -1.51856534415574
H         4.71947645010983    6.02842353369386   -2.03820892440304
C         5.63014551742050    7.58205403631744   -0.77646370594344
H         4.89774871072296    8.32250690944282   -1.05824980266538
H         6.60172856415367    7.97930375017767   -0.52841356595177
O         2.93354860037013    6.84848311774543   -0.40425675364477
C         1.53746908894543    6.85950031951666   -0.20972670737738
H         1.27934800620545    6.52030825399654    0.79826769448442
H         1.08149871602686    6.20763897464911   -0.95713379481048
H         1.18488874756799    7.87900857121839   -0.36779666296446
C         4.18415811655306    3.66931347415150    4.96530548330435
C         4.28395034954595    2.52813449051021    3.95371464985688
H         5.24432977939976    2.02674462629006    4.05914725193521
H         4.21002109367342    2.90392550422647    2.93174448607048
H         3.50447893006414    1.78702593297748    4.11472886571066
C         5.40347202955068    4.58728364586243    4.82707685505255
H         5.50221764089201    4.96144468381982    3.80704360280145
H         6.30956624257779    4.03973013133325    5.07846074902599
H         5.32353615173421    5.43752167666822    5.50401663607137
C         4.16073680296910    3.11136233492853    6.38572929325777
H         4.23592252329751    3.90662189822349    7.12328309291919
H         5.02528638905759    2.46135029266342    6.51360206513945
H         3.27322512587776    2.51880274873165    6.58504329503599
C         1.06453794389500    3.88181063937633    4.40658271492118
C         0.94047452789780    3.24079279981079    3.02038630050127
H        -0.03495106198161    2.76744274096434    2.92523287031012
H         1.69907919450568    2.47916597975176    2.85944646133519
H         1.02977921138560    3.98794302443382    2.23178952903602
C         0.03228696100859    5.00687855237486    4.52442425760460
H        -0.00244331835556    5.41007900580386    5.53447229920995
H        -0.95801643173120    4.63289366941073    4.27256903414673
H         0.27433501295269    5.82010616852062    3.83670212567449
C         0.80171793922884    2.80452167782192    5.45496928017015
H        -0.19787443781808    2.40273028309037    5.29352559497389
H         0.82952145088415    3.19278519162733    6.46826598884032
H         1.50465899899315    1.98016329111915    5.36376816203386
C         2.61398251613617    5.98225935148355    5.81452959869163
C         2.27383782382346    5.55720371685512    7.10100833897071
H         2.05329373279415    4.51835452409896    7.28078853737194
C         2.20618506818445    6.44417219447170    8.15686673337409
H         1.94016078220912    6.08822449357170    9.14030438286636
C         2.48143177422557    7.78544705317400    7.94820859472519
H         2.43844150372791    8.48573939662023    8.76754940392556
C         2.80099890948515    8.22409980617045    6.67822246531772
H         3.00234477372737    9.27037873175569    6.50055758729344
C         2.86625263348127    7.34241730695368    5.60182140097416
C         3.16687775399422    7.95036857565805    4.28525640115084
C         4.47903654453256    8.14814193985442    3.86458964226038
H         5.29427543114289    7.79153380362237    4.47662360368812
C         4.73995083767011    8.82046386111852    2.68326999624811
H         5.76122337846687    8.97753964292924    2.37120996321673
C         3.69706707994985    9.31601201366193    1.91856812940071
H         3.90425874786256    9.86407764673110    1.01182087375153
C         2.38937666298934    9.13762344299488    2.33851020063379
H         1.57299929439518    9.54862360731018    1.76306040395017
C         2.12400422494034    8.45922983557990    3.51482941469237
H         1.10583933271333    8.34124712302122    3.85771674215753

