43
CSD_code = ZISHOY | q = 0 | S = 0 | Stoichiometry = C15H21FeNO5 | MND = 6
Fe        4.77601309597357    1.68931089018924    1.70218715013698
O         3.25435841893848    2.67106017779386   -0.57822115096482
O         2.75280159825853   -0.34390127675730    2.18300304994523
O         6.94363349754451    0.12712287259759    0.45324015457665
O         7.64463258078233    2.67822878857063    3.01255035921986
O         4.03652345722496    3.91156206391149    3.85738004483230
N         5.55789389386110    1.21483890138276    4.67546816851597
C         3.85676675629297    2.27641278489295    0.31596659917517
C         3.54722384658988    0.46901462271670    1.99907468985228
C         6.11488698322446    0.76421387819820    0.92011455560326
C         5.76905095070259   -0.20905486326201    4.77766212492108
C         5.92974803255179    1.97542868234362    5.84941788084506
C         5.32214671267873    1.78042131194863    3.52036472962604
C         4.93346488605487    3.10756571136143    3.20158423793203
C         5.69300702321629    3.60422925216785    2.08969384416760
C         7.14198986553954    3.37201751768680    2.13979688949161
C         8.00013444622696    4.07729074042170    1.08813533127768
C         7.33377697755144    4.07029204535754   -0.28901600855035
C         9.35450395450319    3.37027859325287    1.00113327261417
C         8.20464965699081    5.52085112224885    1.57015569511616
C         2.90404040680694    3.27240071241759    4.42129964090941
C         1.91257670706402    4.34408291164048    4.84079169313661
H         5.51942950981603   -0.67781840572792    3.82820280731206
H         5.13709819055430   -0.62419233202898    5.56541462975136
H         6.81406580502008   -0.41862753891940    5.01611123867979
H         7.00180583231833    1.86972063586981    6.03301609998390
H         5.70999746653068    3.02934199655698    5.69545903442236
H         5.38302196442218    1.60723621872012    6.72023748031446
H         5.36179401713159    4.54096660595277    1.65181422887518
H         8.02291352839791    4.47665721293387   -1.02688047646946
H         7.07330196966395    3.05511058764550   -0.58174512062036
H         6.42950007101885    4.67164751834401   -0.30618288465549
H        10.02338047448752    3.91001741380325    0.33494587999974
H         9.80945052910699    3.30823839891387    1.98618994841767
H         9.22464865020422    2.35832945849372    0.62444402449402
H         8.83547503622311    6.05954524316225    0.86612215748090
H         7.25496082554359    6.04459514819501    1.65302403634621
H         8.68836586517870    5.52810937446291    2.54457490673541
H         3.19576841333641    2.66099074571943    5.28664299123789
H         2.46207056359323    2.60313010263850    3.66302316515392
H         1.02750728741320    3.88088500895660    5.26741823763478
H         2.36395425698551    5.00108202228573    5.57961179944552
H         1.62396599447502    4.93906714294103    3.97887286308065

