61
CSD_code = ZISNEX | q = 0 | S = 0 | Stoichiometry = C20H28Cl4N8Pt | MND = 6
Pt       -2.07189775313679    1.08628664192976    2.98549823201648
Cl       -2.85396748851790    1.16932040103382    5.22138912069250
Cl       -3.61709785304966   -0.50471274086530    2.44765645153747
N        -0.65173988922685    2.52722873913169    3.48429346431365
C        -1.51790749532701    6.02776980439824    0.33233277641553
H        -2.29361984029118    5.33987755571868    0.00991321154059
H        -0.84796875827693    6.22489345739995   -0.50261654352166
H        -1.96390926280824    6.97406883485369    0.63566390588471
N         0.58499699596793    4.32314852000178    3.49598025888608
C        -0.47664673322837    3.69493064197306    2.87316189016360
N        -1.14900454971175    4.24112652338980    1.87989491104456
C        -0.75704632416391    5.42392904179950    1.46156968763930
C         0.33427598435610    6.10224545785350    2.04909048846481
H         0.63185608572965    7.06648889151922    1.67049044162829
C         2.20345114689266    6.11500052231228    3.78399923775952
H         2.04927474840519    6.03433991942143    4.86197240611933
H         2.31379275430189    7.16498881067924    3.51051042560811
N         1.04672689518157    3.55362938998983    4.48508719940090
C         3.49584105169277    5.34817080201939    3.42804973555640
H         3.35463742702794    4.29977071306133    3.70606138439299
C         1.02220383105400    5.53706624040502    3.09329685245762
C         0.28513530770146    2.48964400878947    4.44760570702653
H         0.39840824512276    1.65971969907015    5.11790797556168
C         4.65796800976057    5.91597396948585    4.23579983598074
H         5.57045621943127    5.37018881461612    4.01139962073925
H         4.46435354861230    5.83182390849872    5.30208972504591
H         4.81819152697447    6.96455056512905    3.99305353784942
C         3.78497375626861    5.43715687839420    1.93278543627320
H         3.89795104992711    6.47531870626332    1.62560532265286
H         2.98478673732039    4.98831032174666    1.34796497589539
H         4.70719749585775    4.91157790884513    1.69967627755178
Cl       -1.28986737099595    1.17038322205369    0.74979130208033
Cl       -0.52635027862292   -0.50422751896135    3.52287440961789
N        -3.49256602120195    2.52683893726783    2.48706545953555
C        -2.62766734743620    6.02706551169646    5.63973673899216
H        -1.85216984283953    5.33907312914060    5.96247566667505
H        -3.29804357997768    6.22412736880788    6.47435894642017
H        -2.18144437621543    6.97337792708272    5.33676114208489
N        -4.72908705617428    4.32290381290086    2.47485584161367
C        -3.66783379238438    3.69452695615019    3.09818216254789
N        -2.99595536049295    4.24056496056922    4.09185758621188
C        -3.38796558559338    5.42340695091614    4.51002460024231
C        -4.47885555020783    6.10192264232515    3.92192736132581
H        -4.77647700660000    7.06620633950736    4.30039432766233
C        -6.34711600468589    6.11501557718931    2.18603046205916
H        -6.19240171070017    6.03432446646022    1.10813563184645
H        -6.45742555312126    7.16502335823283    2.45945853420564
N        -5.19041410182155    3.55348459000518    1.48548201476267
C        -7.63981688857198    5.34840800195038    2.54132858513879
H        -7.49861791903979    4.29997022426919    2.26345572696923
C        -5.16631899608949    5.53687993708653    2.87734127522189
C        -4.42895862740493    2.48941310766503    1.52327999701710
H        -4.54199228440642    1.65954180549258    0.85287117497134
C        -8.80142582412100    5.91632967079273    1.73291568453486
H        -9.71410765708429    5.37067234628950    1.95683926695244
H        -8.60723791212361    5.83210900952197    0.66673586939120
H        -8.96164730376809    6.96493637569418    1.97553248231750
C        -7.92974956358401    5.43753551308078    4.03643022760321
H        -8.04280258057422    6.47573122435719    4.34346967172401
H        -7.12991417073849    4.98866923940880    4.62171694631980
H        -8.85214260327427    4.91205236418125    4.26908695137463

