39
CSD_code = ZISPEW | q = 0 | S = 0 | Stoichiometry = C16H20ClNRu | MND = 9
Ru       12.45772645702798    2.81469561204552    6.20361888630308
Cl       10.77377393541208    2.57253576541901    7.84272312626168
C        14.13766712777200    4.20116727861088    5.64915814142711
C        13.25255627664739    4.89839506652747    6.50762228205286
C        11.88909045169215    4.98548899758831    6.16633385165111
C        11.41323070326848    4.48012887996798    4.93513102803155
C        12.29032811483745    3.77098561160992    4.11036812114096
C        13.66123012684983    3.63370506126462    4.45410508177674
C        13.60470674884875    1.68324483154318    7.45227940842482
C        14.66622562820887    2.15979769147863    8.20681319709349
C        15.43930072805225    1.30428891927713    8.97856425103864
C        15.15612283408458   -0.04739249741394    9.01154492189432
C        14.08320971827243   -0.54240733883574    8.28823294004164
C        13.31331843155737    0.31458617648128    7.51917706658786
C        12.07909527618551   -0.11455012579005    6.75522052976058
C        12.03619874699097   -1.60639461593500    6.42668603811776
N        11.97490985814600    0.79319635327078    5.56997645513764
C        12.90051763587597    0.35729461806870    4.52135546167205
C        10.60745177666283    0.80442818858379    5.04607353613364
H        15.19973026406553    4.17809817803985    5.86577733391023
H        13.62630017711006    5.40660017333850    7.38930489689090
H        11.21389423509230    5.54392650297605    6.80708566941673
H        10.38653369473457    4.64837619595460    4.63770717260939
H        11.95018738664882    3.41919941098050    3.14018439257623
H        14.35656458246043    3.18661210719097    3.75237184003382
H        14.89890290485511    3.21646096937433    8.22262282294343
H        16.26098170238269    1.70029976907943    9.55878303573959
H        15.75722703839114   -0.71617317707911    9.61012467737559
H        13.85036976364406   -1.59538286785292    8.34103940852526
H        11.21236408459796    0.13010060769872    7.38510342018409
H        11.22633274426209   -1.84187374898382    5.74054448132370
H        12.97644098167349   -1.95415583073109    6.00574399443672
H        11.85062411821019   -2.15552751029931    7.34532998931613
H        12.88294711023917    1.06018248738027    3.68899152351857
H        13.90962148362501    0.31168776519832    4.93348893894307
H        12.62435587775910   -0.62786633095143    4.13386338992500
H        10.55129223072139    1.45825413214980    4.17520473224082
H        10.28351141474053   -0.19590646571801    4.74209788214961
H         9.93645762839506    1.18199315849081    5.81984607339241

