51
CSD_code = ZISPOG | q = 0 | S = 0 | Stoichiometry = C20H28ClNRu | MND = 9
Ru        2.64243691757398    5.21768388597078    9.18979051726049
Cl        3.92729995612211    3.51817279356132   10.21027048338227
C         1.64224784085240    5.78811598190833   11.29725916742859
C         0.96270641834761    4.74716855906430   10.59679701475221
C         0.42800978767504    4.95063531481503    9.31452341654122
C         0.67192419018153    6.16624578917755    8.61699756631877
C         1.45932282142929    7.13873241207742    9.26577959836446
C         1.88535849125447    6.97402469939317   10.61437543857430
C         2.00687014665270    5.60842402980183   12.75180410054442
C         1.17973044529630    6.56453454700958   13.61741022081003
C         3.50502561508972    5.80142421568763   12.98976202627770
C         0.01671502832048    6.43710404032573    7.29463633868088
C         2.93340203861296    4.19454288240320    7.45033986770305
C         1.96408831255207    3.47147484460705    6.77019569450099
C         2.23613128388425    2.86703883499340    5.55101776078748
C         3.49514187054980    2.96710399766518    4.99262767660056
C         4.48971908736048    3.65681713976355    5.66694970135661
C         4.21304392967328    4.26182311074589    6.88155995682021
C         5.25129544905926    4.97664395792110    7.71868362878177
C         6.47206923814445    5.44895921307418    6.92919370132061
N         4.52677501332494    6.05235882815160    8.46312696535264
C         4.28036568032746    7.19160172409693    7.57630853082823
C         5.30396930738844    6.49621490656026    9.62098982197286
H         0.73137383232315    3.82731946439112   11.12677906496606
H        -0.24246684031655    4.21133115505063    8.88967106070604
H         1.57317350942468    8.11305722227317    8.79777154202532
H         2.35233450196378    7.81102620379615   11.12108953255884
H         1.75587511652742    4.58097726411379   13.03761698652221
H         1.38507285943623    6.38413069582195   14.66995838094990
H         1.42459363643229    7.60111350398830   13.39404237225648
H         0.11512398409491    6.41777710929679   13.44339801168389
H         3.74677779919135    5.59146626887596   14.02893804799864
H         4.06359126290173    5.11292539553483   12.35833960185317
H         3.81212094255239    6.82157508888531   12.76754878683933
H         0.36875157991477    7.37497908079342    6.86966263261891
H         0.23116019417576    5.63514397092847    6.58895123502166
H        -1.06531865572868    6.49733074611770    7.42061176625926
H         0.97717611381354    3.33947842151346    7.19249708757938
H         1.46077278926606    2.30891498274637    5.04446313812616
H         3.71150070227326    2.49699862091229    4.04441205709003
H         5.48022516324003    3.70602205835113    5.24002155942068
H         5.58853060560062    4.26695512398161    8.48722744410633
H         7.10667462931164    6.09950540468113    7.52611344618038
H         7.06475986329601    4.57941014539026    6.65947277675204
H         6.18771075168635    5.96430356774657    6.01485363467412
H         3.71511045028870    7.95857374483916    8.10322574516696
H         5.21898215518343    7.64186780410754    7.23949345888323
H         3.71143963095689    6.85362804205581    6.70913993362233
H         4.75184070436782    7.26766350478833   10.15849783415699
H         5.46799652410699    5.64574890472986   10.28409675859644
H         6.27126732404743    6.91433079551320    9.32350690842375

