55
CSD_code = ZISQIB | q = 0 | S = 0 | Stoichiometry = C26H22ClF5Ti | MND = 12
Ti        1.72630543222636    8.11703554135159   11.59263037126276
Cl       -0.24611967599567    7.71568060097506   10.67275307842763
F         3.17908014163634    9.92990797035175   13.78834854488858
F         2.35152429514413   11.35985363880526   15.91622039264026
F        -0.27442755836155   11.24126131131199   16.71682690604579
F        -2.00628098233693    9.61930809847883   15.33926835008420
F        -1.16158553158970    8.23199333184574   13.21071782762116
C         3.01378277213770    6.07502999125895   11.40678735206474
C         3.50095269610431    6.83002431660949   12.49082593749288
C         2.44919305269392    6.92737317426967   13.43449737733695
C         1.32037648891099    6.19212500708470   12.95105478208910
C         1.67973271669686    5.67514999090929   11.70454067180915
C         1.36972864125577    4.51699771843835   10.79594637316981
C         1.32787693694349    5.01545448923539    9.33712709796078
C         2.80270545245959    5.34697548961007    9.02047620874823
C         3.51969874465333    5.10965769541281   10.36194097847241
C         2.76102524550679    3.84547916427212   10.82852862258818
C         1.53072817180010    9.84399927874041    9.93087331752552
C         2.23323395840971    8.80397173918913    9.31027155602175
C         3.43614426817247    8.62821675816202   10.04030794341970
C         3.49111696841776    9.57682039313310   11.08897210773172
C         2.28540608556961   10.31311289200021   11.04050841377354
C         1.69067741888026   11.64616751680241   11.40419172029691
C         2.08703535384431   12.58334157587834   10.23600630354673
C         1.25466137793569   12.06057902062897    9.04566955022267
C         0.47379439389955   10.86742562952503    9.64797028690890
C         0.20930086443590   11.39749209072600   11.06614752556774
C         1.01648511632911    9.13738692895997   13.30888785292759
C         1.85718260066175    9.91503717059615   14.10190748519344
C         1.46521436118075   10.62435912674241   15.22934856173220
C         0.13956081471420   10.55899187668019   15.64359354315314
C        -0.73549988511168    9.74482534574914   14.93599910513617
C        -0.28043932193269    9.05747502752322   13.81292182580642
H         4.51489024219071    7.17289291141573   12.64950896073099
H         2.56142653416905    7.29415565906829   14.44687784174291
H         0.41020851643521    5.99260176508820   13.50275127077255
H         0.51811232662808    3.90519022606868   11.08529539360167
H         0.95302189108363    4.22779389133112    8.68361421666701
H         0.67559300894153    5.88289951270242    9.23744311009927
H         3.20402558262656    4.65944278032576    8.27400679110785
H         2.93544568779247    6.35794647204492    8.64519554973279
H         4.60342925676169    5.02647321972114   10.28313165875048
H         3.04935405047103    3.52153186717979   11.82785346686197
H         2.85209374167039    3.01229738396222   10.13212912946351
H         1.95223162204197    8.31150312514713    8.38901890795503
H         4.25873884569679    7.98540956549565    9.75393395598257
H         4.35609286984098    9.77665758993460   11.70423787985173
H         1.91430814082132   12.05238718898207   12.38899626996548
H         1.82458859900480   13.61260150411203   10.47844859478816
H         3.15772156322547   12.53969816949227   10.04146798301074
H         0.55982013438017   12.81930942202464    8.68719531921971
H         1.88019979127224   11.74638400023404    8.21142903315133
H        -0.39053950211992   10.54636406639609    9.07074933260862
H        -0.26746292887239   10.65193330226470   11.70488118947505
H        -0.37837138934793   12.31451647574721   11.06726617279035

