96
CSD_code = ZISQUN | q = 0 | S = 0 | Stoichiometry = C36H55BO3Ti | MND = 7
Ti        0.78491505130150    1.74390277562059   -0.20399934236128
O        -0.07563649492840    1.45517638108684    1.26157445005298
O         2.21215676067981    2.63056107979316    0.22567398092942
O         1.25417036589595    0.18400494709580   -0.77019470650772
B        -0.35340932153007    2.89525574547299   -1.85789064737906
C        -0.28760398316853    1.68503685938187    2.55988538903037
C        -0.69230114574105    2.96200201332022    2.99485768489111
C        -0.92528186872678    3.16168079181592    4.34655387594511
C        -0.75003976820065    2.13707363796019    5.25929014588712
C        -0.34510452000833    0.88570627227577    4.82886835931505
C        -0.10883599748648    0.63920997848237    3.48735915628819
C        -0.90503134268923    4.03994145976556    1.95527103364869
C        -0.72812177371180    5.46069031267253    2.48916593897333
C        -2.30995728756044    3.88024770568572    1.35851773352013
C         0.28650059702559   -0.71486196609100    2.94579483628894
C         1.04010246377152   -1.59144399129222    3.94130281819228
C        -0.97544110757168   -1.43265293075854    2.45354434934706
C         3.53541477889718    2.61987068238261    0.42885012042520
C         4.04269647523176    2.45321478225109    1.73357465030512
C         5.41298437108824    2.45724709390920    1.93382297250475
C         6.28418892772183    2.62327838062572    0.87330348507020
C         5.78750932485837    2.78861586193561   -0.40701949843816
C         4.42389042441266    2.78242409467706   -0.65355967326080
C         3.05303101671318    2.33573917160457    2.86802076348871
C         3.56638968480402    1.55227096631220    4.07253918979547
C         2.63154476158003    3.74721525586854    3.29142227558216
C         3.84112151053566    2.97260549611512   -2.03514712651532
C         3.27683900319321    4.39458470539442   -2.15075303043726
C         4.82479959914431    2.70081692667385   -3.17070688735778
C         1.20958963620297   -1.12531165886161   -0.51085141312862
C         2.32638275999252   -1.75964910597599    0.06690422501551
C         2.27975042057859   -3.12604075706881    0.28801826191939
C         1.15590687158735   -3.85946046351427   -0.04864778585481
C         0.05415902617126   -3.23048480475348   -0.60197165382543
C         0.05436744100203   -1.86388441034414   -0.83108023841373
C         3.53203564970287   -0.90257674104803    0.37607567798607
C         4.42677572480494   -1.46119415379446    1.47839150188232
C         4.33839589736674   -0.69348743504364   -0.91120321856867
C        -1.11487762462155   -1.11626470379713   -1.43306655266742
C        -2.44622977114708   -1.85470093874554   -1.31509590760977
C        -0.81259373353298   -0.79966075015856   -2.90390366541421
H        -1.00354150977689    2.64670533514279   -2.81655028789396
H         0.80300454524015    2.40508075095677   -2.00991710544125
H        -0.87916317761967    2.28726527541394   -0.86386615912207
H        -0.28108862093926    4.06667735914623   -1.62254218143802
H        -1.24715087994433    4.12980861097780    4.69706084034422
H        -0.93409138405620    2.31295958820382    6.30867949831827
H        -0.21651732946215    0.09399827089473    5.55026560732690
H        -0.16110109912831    3.87670681561914    1.14785211328538
H         0.21241652971478    5.56458554580946    3.02449286153968
H        -1.54264788382911    5.72869915669561    3.15861041448442
H        -0.73303385484786    6.16497199201106    1.65975401901191
H        -2.46206187870154    4.58786918778597    0.54609358627887
H        -3.06134777518614    4.05858566430590    2.12653882433948
H        -2.44806746957253    2.87157407332545    0.96888073836564
H         0.93772019223421   -0.54335097635617    2.07450246301725
H         1.88032682270175   -1.05384670454186    4.37380526876811
H         1.41729552310855   -2.47414576385982    3.42869535236397
H         0.38584573184737   -1.92404541346828    4.74391307448616
H        -1.47908082881384   -0.82555948852528    1.70272129772565
H        -1.65994077117560   -1.59994155260471    3.28364658332168
H        -0.71543271698628   -2.39079583024750    2.00917674661498
H         5.80783917545399    2.33442913975466    2.93016105213238
H         7.35053260517455    2.62877733142265    1.04363000493907
H         6.47917996854090    2.92260824880513   -1.22344050276067
H         2.16624904136103    1.81616783607564    2.47528084760953
H         3.97612708148327    0.59350649773958    3.76418938698894
H         2.74259153564732    1.37591589508175    4.76156756414463
H         4.33518882217842    2.10831170377550    4.60436258634951
H         1.87488279206832    3.69769403491865    4.07144697813479
H         2.22320682910922    4.28354735351467    2.43599377470662
H         3.49277644676616    4.29764288082221    3.66731582597668
H         3.00333713513925    2.26037458008842   -2.13304810567690
H         2.52476124004179    4.56773928414935   -1.38022172399529
H         2.81167538115687    4.54125219517761   -3.12336843493507
H         4.07685685142696    5.12360698626959   -2.02995286474012
H         5.29367557878596    1.72622107622751   -3.05448119464514
H         5.59904605553710    3.46404263074681   -3.20839636588853
H         4.29517064303113    2.71531023622176   -4.12112295480018
H         3.12931475261060   -3.62882166989881    0.72288287415430
H         1.13722690153256   -4.92567517911863    0.12185934279867
H        -0.81466825158993   -3.81798135187991   -0.85347702185468
H         3.15628418193717    0.08110081379097    0.70286006140386
H         5.17197504105963   -0.71551388203149    1.74861276984832
H         4.95049486208178   -2.35340869528337    1.14250019182057
H         3.84292756160227   -1.70832295813703    2.36208416163542
H         3.70902781529985   -0.24047224837432   -1.67631520997011
H         4.70622567448073   -1.64868525027364   -1.28274342757923
H         5.18477080346022   -0.03669681852165   -0.72212483739754
H        -1.20096655210066   -0.15631124119103   -0.88858229796186
H        -2.63177588008442   -2.16231098767302   -0.28839826799090
H        -2.46021558477061   -2.73472978349468   -1.95450459740400
H        -3.25629006018938   -1.19982920618018   -1.62956659388734
H        -1.62856362907014   -0.23024554834700   -3.34407647986218
H        -0.68645938403805   -1.72392738652393   -3.46616547377414
H         0.10199959644376   -0.21101698130836   -2.98486615178419

