104
CSD_code = ZISROI | q = 0 | S = 0 | Stoichiometry = C40H60O3Ti | MND = 4
Ti        4.29228663230106    9.55497172029530   14.26263029827981
C         2.38750587715227    8.74595212072665   14.43424621477046
C         1.32220975422729    9.66571144691146   13.82400578187993
C         2.38377111801920    7.42094264771083   13.65785925871432
C         1.99750151970649    8.45509234412640   15.88919573186880
O         4.27927979986457   10.00986185134151   12.61032129724889
C         3.94069406884470   10.48812066331494   11.41539575392568
C         3.41189337966519   11.79034324724899   11.28257000296942
C         3.09711340360979   12.26600407158731   10.01985129391046
C         3.27483110347473   11.48749547884890    8.89182740381040
C         3.77449370212484   10.20601455372259    9.02284313947384
C         4.11164043131332    9.69229516581310   10.26410767025476
C         3.19100030839591   12.65365844968607   12.50396005529119
C         4.17253650592220   13.82911327121672   12.52786801082190
C         1.75235436456119   13.17434867899053   12.56628410221435
C         4.67309457831014    8.29499759253523   10.39263272656090
C         3.72530141637790    7.25334507204786    9.79354611890104
C         6.04705480609717    8.21798153876176    9.72258719227910
O         4.26718755674135   10.89201103417977   15.36153272615572
C         4.87188763818350   12.06455774026997   15.53708099402379
C         6.21096591541290   12.26120095752251   15.14093061397587
C         6.79563902917679   13.50189189758718   15.34902291293963
C         6.09645657321378   14.53449113887445   15.94329430980097
C         4.78323557622043   14.33943045947485   16.33446600073859
C         4.15356323042680   13.12441761381576   16.13096671936500
C         7.00004393632251   11.13257960033436   14.51162727526891
C         8.29389893504442   10.85523740140726   15.28328540980453
C         7.30662525199493   11.41639750157956   13.03622768846205
C         2.71857409666831   12.86400434560904   16.53212347142655
C         1.86274164046183   14.12602907087961   16.60661735975026
C         2.68941263092995   12.12073864348386   17.87179841739285
O         5.22369175817281    8.20999289810895   14.84178724342006
C         6.35022403166886    7.86915710282902   15.46508375182896
C         7.42153239968190    7.33187736614887   14.71911237536695
C         8.57114332219053    6.92955133078065   15.37607929197221
C         8.69110828554090    7.06546071646488   16.74785346676761
C         7.65797164086615    7.62605240659541   17.47313499898980
C         6.48919669062679    8.04401546937335   16.85562571139883
C         7.24692545790195    7.20386218620506   13.22241135551515
C         8.56828622444297    7.19846144314892   12.45682522999746
C         6.44364084197699    5.93386732490447   12.91832786292054
C         5.36531567458557    8.65824156490148   17.65909664147291
C         4.75246321212752    7.61336996123246   18.59652163496682
C         5.84202686403577    9.87996439641383   18.44959619539715
H         0.33146262283755    9.19606194520033   13.87618579980018
H         1.53615863781792    9.87336589073016   12.77256408690672
H         1.26816205106299   10.61182188912536   14.36711788036040
H         1.39835748013633    6.94022344908388   13.71415384614331
H         3.11843870857393    6.72568856465133   14.07334637981283
H         2.61290061890836    7.58871484096706   12.60298372907637
H         0.98241689020932    8.04118105980186   15.93967343934465
H         2.01447564699957    9.36765729542770   16.48947017046133
H         2.67448899467824    7.72296481858901   16.33385286191338
H         2.70407075020052   13.26609124474187    9.91499659087355
H         3.02280683847332   11.87663249856696    7.91671309875370
H         3.90715008980333    9.59570911714988    8.14185993999357
H         3.37103156329729   12.02832956243374   13.39107125226274
H         5.20052801317284   13.47591628070226   12.51368090326567
H         4.03222452643839   14.41809476787871   13.43175361729519
H         4.01754969473811   14.47206106459512   11.66358262579174
H         1.57531846202154   13.66180881927499   13.52214722361981
H         1.04090327447431   12.35965995591049   12.45438560604440
H         1.56764708645265   13.90003131259674   11.77769123780234
H         4.79013500948711    8.07743905608844   11.46507013682183
H         2.72348534608541    7.36507972649145   10.20342752944832
H         4.07970568264110    6.24888788839763   10.01708756948443
H         3.66376414082719    7.36024121166006    8.71315983516855
H         6.73221017165457    8.92930047630094   10.17961996030803
H         5.96886507678043    8.45322531875566    8.66334045955747
H         6.46196966219325    7.21660679572821    9.81881114338574
H         7.81869438557176   13.66334248009401   15.04257009459577
H         6.57178835082265   15.49088233895996   16.10151974183191
H         4.24630809274250   15.15193126286450   16.79837146652802
H         6.37292124172164   10.22326453931090   14.54924036456036
H         8.77595967183375    9.95835555259560   14.89920037004462
H         8.08606702094220   10.69733612799451   16.33916373415296
H         8.98776036689405   11.68766327756007   15.18836051705449
H         6.38399158149878   11.46362001389452   12.45558559612796
H         7.93116811793785   10.62302921146616   12.62686117010608
H         7.83638097436776   12.36141766971358   12.92577343497417
H         2.28973769909416   12.19606682590193   15.77125377283757
H         0.81394646607030   13.85430980597797   16.71000499987772
H         1.97533059350239   14.72734929149079   15.70693782367304
H         2.13671931242354   14.73253792077220   17.46678329122635
H         3.23123954952400   11.18162406772798   17.78365150664580
H         1.66350123014782   11.90849264492663   18.16757268734482
H         3.15822983318940   12.72379231558466   18.64737668435950
H         9.38948188686566    6.50276322481216   14.81753606953022
H         9.59143434077205    6.73943593833314   17.24688818176485
H         7.76291955656681    7.73715335351925   18.54237457678577
H         6.65369163973514    8.07266680120547   12.88677692257633
H         9.19743344548329    8.03219315426605   12.76255475728534
H         8.38035602760293    7.28444302774063   11.38920459546687
H         9.11216212695092    6.27177297457906   12.62558664071518
H         5.46768221739710    5.98614025729420   13.39875673680578
H         6.97067017671930    5.05883421657528   13.29517687158461
H         6.29857268014426    5.81697580740989   11.84655821527402
H         4.59018242901353    8.99366390208455   16.95192730104467
H         3.88650012652422    8.02448089284985   19.11186577371279
H         5.47855256475099    7.29588288332265   19.34182157010167
H         4.43793051542887    6.73672924209530   18.03340340719699
H         5.03583409710446   10.25873967602984   19.07478252880678
H         6.15058479978331   10.67532653338869   17.77270259259149
H         6.67991865634156    9.62867642980081   19.09574736681846

