68
CSD_code = ZISSEZ | q = 1 | S = 0 | Stoichiometry = C29H33FeN2OP2(1+) | MND = 8
Fe        3.53659043668675    2.56094785466746   15.80989385585927
P         2.74796038225771    3.51912677252653   14.00211395047980
P         5.62402547835272    3.20965484956082   15.69575424589466
O         2.71487076304743    4.81917501870823   17.39006824030685
N         2.74023408719527    5.13945178265933   13.57171315588571
N         3.47673068364755    3.07471764618756   12.54674331727206
C         3.08119940678001    3.97301985170182   16.71343005345532
C         0.92205117266374    3.21102116213359   13.89744900840802
C         2.44520950712691    6.22896532919711   14.47221210293603
C         3.58159625158938    5.43114302666900   12.42226146279735
C         3.49696225626134    4.16762226047625   11.58050728788153
C         3.30021167558446    1.75200637249577   11.98262842168491
C         2.96224081438885    1.28440869427356   17.44733310837509
C         4.17286645575100    0.81695604820362   16.89440569433711
C         3.92393259465382    0.43770630642899   15.54572112652525
C         2.56387767961774    0.66441099456813   15.28038742677101
C         1.97085713215287    1.22708198413467   16.44099645888405
C         6.42320639762259    3.51911211676129   17.30348835612117
C         5.72978795462972    3.39887840989490   18.50054038955164
C         6.36425615595621    3.66870721499359   19.70131280207668
C         7.69245400104746    4.05968159729312   19.71161578942152
C         8.38781856498566    4.18874377655644   18.51840740046816
C         7.75806409713469    3.92534393954471   17.31749398879605
C         6.67454747028383    1.94810518941635   14.91631042476080
C         7.61802948984309    1.20524233480548   15.61654894942766
C         8.33551174428264    0.21630506529033   14.96461805333691
C         8.11025074578911   -0.04358692160856   13.62302846511755
C         7.15347163789263    0.68048738332083   12.92721099192272
C         6.43169771571840    1.66620898179732   13.57266485244997
C         6.10515769729241    4.76742497558964   14.87804718731246
C         6.89159125801018    4.85372207256332   13.73480299428750
C         7.25862601717243    6.09600550564275   13.24170184958000
C         6.85141011764811    7.25351337064995   13.88343213173235
C         6.07626772639262    7.17229973548432   15.03076598102962
C         5.70494487684644    5.93650388653924   15.52544312203053
H         0.44639950347766    3.64724362286326   14.77297400722684
H         0.54056677431601    3.70064558874200   13.00165711046207
H         0.69135537266224    2.15082290122776   13.86943505499528
H         3.34202077047047    6.64952603043980   14.93426511520701
H         1.94247520691048    7.02048285457701   13.91241157308600
H         1.76936757252932    5.87941230774389   15.24908185943367
H         3.17454337869159    6.29463978414921   11.89107403969669
H         4.61595821028277    5.65372492863565   12.70565091737550
H         4.36351722159104    4.05616990197773   10.92415032041562
H         2.59054579648327    4.17402872019732   10.96219766465387
H         2.31482347979674    1.61670983952175   11.52433716905689
H         4.05587174410288    1.58840215195198   11.21255629389801
H         3.43944472571099    1.00887960943132   12.76443402500277
H         2.79325631065593    1.55212438812448   18.47633655365503
H         5.09284036479956    0.64754007759853   17.43037801479679
H         4.62021569791489   -0.07625478872095   14.90542939598460
H         2.03417390949208    0.35481554057808   14.39578608722150
H         0.92039606272341    1.41322770700695   16.58497671910744
H         4.69124663366314    3.10180427313681   18.48587152676896
H         5.82017662144950    3.57600132688082   20.62888123174362
H         8.18603101201291    4.26878156450662   20.64796851303169
H         9.42163201198593    4.49863655660457   18.52539018230414
H         8.29465943777722    4.03195462797105   16.38398618379324
H         7.79712970435864    1.39821285212828   16.66460278373010
H         9.07166641537232   -0.35529295527505   15.50895217946750
H         8.67352510401518   -0.81500817571692   13.12117138755147
H         6.96995303965705    0.47000081381990   11.88402937390619
H         5.66567992114673    2.22580047310019   13.05576060293038
H         7.23317084781184    3.95930442527443   13.23601371090380
H         7.87376339799644    6.15727016523703   12.35670476537449
H         7.14561737165337    8.21726586500349   13.49813231869228
H         5.77120532113731    8.07269205645423   15.54237289826259
H         5.12096061104547    5.86232037569452   16.43387777308551

