81
CSD_code = ZISVEE | q = 0 | S = 0 | Stoichiometry = C42H30N2O6Zn | MND = 6
Zn       10.28698527867522    3.34185230683552    2.59647369548636
N        10.27401185260189    1.99711246986008    0.98079261819137
O         9.36586024543894    2.01570938591281    3.84524448676354
O         8.27482672652062    3.54871895538641    2.74068589053685
O         5.65722073723219    4.73395901696388    2.39023554175369
C         6.98471909005508    2.06527781774643    4.00741320188269
C         5.85184258735981    2.58443020380017    3.37982010503909
C         4.59539154692530    2.17497711687086    3.80200753867707
H         3.71503328569933    2.58182886294070    3.32680370202630
C         4.47867566315936    1.24966456474163    4.82675247066907
H         3.49783682209064    0.93508053527527    5.15221819956134
C         5.60878282470384    0.72819465460903    5.43875435918484
H         5.50570931867379    0.00877919532414    6.23756887848347
C         6.86614672247783    1.13622885080819    5.03170687203745
H         7.76397849353246    0.75712683585619    5.49516247913298
C         8.29189604777136    2.56657349572251    3.52535556262760
C         6.00881182582393    3.58113992944156    2.26936209358902
C         6.42571536021629    3.01665506163019    0.95112816065831
C         6.64318140911826    3.89847322284952   -0.10390378585576
H         6.54932616765918    4.95665198835504    0.08874765302049
C         6.94552334491279    3.42616748332572   -1.36492818918122
H         7.09105985612104    4.12175173053280   -2.18015820574531
C         7.03821548784120    2.06048537543304   -1.60649476203199
C         6.86858258496165    1.18453026773231   -0.53991219923737
H         6.95477224347394    0.12010562502333   -0.71071272161511
C         6.56436526996231    1.65066177094396    0.72468030112577
H         6.41411220397703    0.94820534175215    1.53171411288057
C         7.25131827333105    1.53466832538247   -2.99334027902593
H         6.28956354027843    1.25636817792201   -3.42615803872524
H         7.87945560371737    0.64673525714713   -2.98344559269352
H         7.70232898952586    2.28882027212376   -3.63317051859714
C        10.30552811923643    2.62589862621713   -0.19876076592195
C        10.36905147252952    1.93226112328369   -1.42501288043455
C        10.44302219277865    0.53067644192596   -1.36692418425311
H        10.51084036351884   -0.03931485701690   -2.28305738469331
C        10.42738956632100   -0.09126716398222   -0.14241176920969
H        10.48605963184969   -1.16524953782543   -0.06132640429822
C        10.33219143869183    0.68808942111853    1.01589591490657
H        10.30545026969805    0.24005996937055    1.99862521799846
C        10.34102426341670    2.66659095163825   -2.64486294150799
H        10.39329303888769    2.11488706628804   -3.57238336918925
N        10.29994936706477    4.68641902226586    0.98065615164351
C        10.26861131590791    4.05753805232143   -0.19884180954569
C        10.20516779984482    4.75108385838883   -1.42514650363174
C        10.13105075784153    6.15266680980574   -1.36714536223276
H        10.06326785229172    6.72258952048855   -2.28332166665489
C        10.14639443795825    6.77469977932485   -0.14267212931106
H        10.08756893515696    7.84867910485464   -0.06166645654796
C        10.24154287267516    5.99543198691836    1.01569592821588
H        10.26823024923418    6.44347208252850    1.99842276127818
C        10.23335615849903    4.01666028920447   -2.64493395001663
H        10.18119236292704    4.56827647457195   -3.57251292876746
O        11.20811629497331    4.66874582550099    3.84443544965401
O        12.29914109878787    3.13483365507682    2.74108721777931
O        14.91703566932583    1.95025691804793    2.38987531523118
C        13.58918771181268    4.61881129041322    4.00724444639031
C        14.72207644153797    4.09968193474981    3.37966543306182
C        15.97852156886411    4.50914585226686    3.80186067906711
H        16.85888565090045    4.10229082950979    3.32667043511722
C        16.09521458573939    5.43438513914055    4.82667228806989
H        17.07604402042692    5.74897412359060    5.15216052369497
C        14.96509409087997    5.95575260878934    5.43873691823884
H        15.06814995255778    6.67512366143522    6.23759370275421
C        13.70773704871809    5.54776083190815    5.03162858502117
H        12.80989882365544    5.92685356243973    5.49508086437603
C        12.28203741590335    4.11744726532906    3.52516899654990
C        14.56514515266281    3.10301198671729    2.26918020621304
C        14.14815379091252    3.66757852134995    0.95101326451773
C        13.93090131587208    2.78586679076144   -0.10415671197472
H        14.02471890110720    1.72767024429296    0.08840925350285
C        13.62867649830121    3.25829301519415   -1.36516554590606
H        13.48322869254542    2.56279052179871   -2.18047969339198
C        13.53591646987031    4.62399796321330   -1.60659749109430
C        13.70545837186247    5.49984967402055   -0.53991360079877
H        13.61941719740747    6.56429721617993   -0.71064086171805
C        14.00953015842953    5.03359603558312    0.72467023526836
H        14.15978006154123    5.73599065048500    1.53175718678753
C        13.32275508892817    5.14993067134357   -2.99339154611047
H        14.28442780396375    5.42857303213600   -3.42617369070231
H        12.69435892829944    6.03767966451724   -2.98339498014764
H        12.87195932405208    4.39572739426696   -3.63331597788749

