27
CSD_code = ZISXOO | q = 0 | S = 0 | Stoichiometry = C10H14ClHgN | MND = 3
Hg        4.55127521059054   10.64298389697064   13.57190871395153
Cl        4.66679751737131   10.98344147509929   15.93119374019982
C         4.43739924621149   10.64299372572490   11.35678873869576
C         3.42888789355727    9.97203322943756   10.67557765506201
C         3.30091758844908   10.09151323371487    9.29895400696376
C         4.17881363415686   10.89523733771842    8.60060186262578
C         5.18546920170746   11.56885936687061    9.27180098164354
C         5.33316483434097   11.45480010815891   10.64905219292271
C         6.46734715548923   12.15456168877593   11.39348633438212
C         7.33466811047514   13.04896842600201   10.50206951072554
N         5.91472529186660   12.83872309817969   12.57658077260202
C         6.93224493823183   13.23071193189640   13.54259868934349
C         5.09410868327125   13.99014149199460   12.22260770108566
H         2.73289889650612    9.33745764592609   11.20907161026365
H         2.51566127423329    9.55860766043285    8.78392558756526
H         4.08639764788635   11.00230993827015    7.52990019780024
H         5.85774357723234   12.18792746741813    8.70026244798057
H         7.11749188221502   11.35903810599673   11.78972099221227
H         8.10520386966750   13.52849131356812   11.10067946453418
H         7.83205493466416   12.44605982066684    9.74743692061263
H         6.74602135355893   13.81911941522441   10.01105381243484
H         6.43698343184754   13.54535720592779   14.45997864912986
H         7.57081769128655   12.37853940552850   13.77289576156502
H         7.55737177802272   14.06099729251551   13.18811006103786
H         4.54112788062458   14.31091772033339   13.10479080077143
H         5.69430602800441   14.83713336547142   11.86721142594897
H         4.38260044853160   13.70467463217666   11.44964136793887

