47
CSD_code = ZISYAE | q = 0 | S = 0 | Stoichiometry = C23H16CrN4O3 | MND = 9
Cr        3.56005206324433    3.64709007016195    6.50478050081391
O         0.70648236547106    3.28067943205989    7.26689684596164
O         3.80657138795561    2.63176936828150    9.29104483618642
O         3.27543053372811    0.71348953958606    6.08989836408385
N         8.64966727716103    3.85222184704361    5.25542900954919
N         8.70864496236535    5.19744464086036    5.08192469879057
H         9.43879658825350    5.51785782767024    4.45614108179672
N         9.88461007105167    7.58562305786184    5.18420955521004
N         7.62089229679427    5.62991399503427    7.09209732650944
C         8.38905234801309    6.00623639006863    6.14451799855795
C         6.95617759166872    4.34357159955897    6.92779657930361
H         6.77558247229651    3.96232715838667    7.94228229959100
C         7.84383950118269    3.39638952872372    6.14173053050067
C         7.80982072518412    1.95899029483550    6.38538412077702
C         6.74437755231273    1.35873564122749    7.05763603781174
H         5.91650531283865    1.94817257192727    7.42536884262704
C         6.71855039271914   -0.01212151572107    7.23672249090285
H         5.88125245218698   -0.46041427722865    7.74911867104229
C         7.75095759410591   -0.80092432741915    6.75795385006610
H         7.72684002506747   -1.87074308343197    6.90137511712763
C         8.81509995367199   -0.21262825724231    6.09065545769553
H         9.62197770807183   -0.82457266176748    5.71449635822997
C         8.84580792090098    1.15399353049282    5.90361745898836
H         9.66519006952416    1.62435597533033    5.38283070479374
C         9.02534401590932    7.32922560417971    6.16862751446617
C        10.48104973189221    8.76230392786747    5.16494437289900
H        11.16797442707958    8.92043215471638    4.34384077625805
C        10.26358940298212    9.74361717439841    6.12127025687721
H        10.78205579495549   10.68770025941537    6.06469480486305
C         9.36895962848374    9.47526436883502    7.14708381402361
H         9.17349343261749   10.21189737599670    7.91262591173826
C         8.73132925385591    8.24791732612009    7.17348111103939
H         8.02753918912106    7.97610077146336    7.94249026199991
C         5.62311418487023    4.58143466577525    6.23894002867748
C         4.74745812483034    5.54164698176249    6.79780340579676
H         5.06571322092139    6.07449380344389    7.68636333849125
C         3.56719471193164    5.88999061027286    6.14432801456521
H         2.94460678095715    6.68775781463773    6.53128505966226
C         3.22380402471692    5.25805267948994    4.93181467029167
H         2.33790471209903    5.57421205501541    4.39369629207958
C         4.07270316087193    4.30064213067530    4.38208840699665
H         3.85360871922103    3.86521702551571    3.41449712093791
C         5.27398963946037    3.95998067283227    5.03977769759875
H         5.96139527654181    3.26963353167412    4.56302328203348
C         3.40347120409007    1.85660059547221    6.20510776020887
C         3.74542050873017    3.05639103624689    8.21604870520438
C         1.80190168809021    3.46122908789132    6.94635865637306

