27
CSD_code = ZISYAB | q = 0 | S = 0 | Stoichiometry = C10H14HgIN | MND = 3
Hg        1.68764091522970   10.82848548378329    1.32737686602886
I         1.79214661669660   11.11392908770327   -1.35687614826369
C         1.65458805054108   10.83426952584140    3.53791125983130
C         0.66114477095263   10.18974234211225    4.27020597192553
C         0.58979141701673   10.32137463086259    5.64926235054314
C         1.51096428173534   11.11066353359646    6.30688711015764
C         2.50298577550153   11.75901044320631    5.59074109119727
C         2.59259887096878   11.63340312877689    4.20995710239754
C         3.71005816458783   12.30866089289768    3.41790868948540
C         4.63636250028260   13.17930396559995    4.27151034833559
N         3.12308785864744   13.00875166980921    2.25827480412317
C         4.11267631672049   13.39137953436814    1.25920936357431
C         2.34225482064569   14.17543437566207    2.65258473455178
H        -0.07288990271004    9.56646526122293    3.77237453491975
H        -0.18542329824962    9.80742085411049    6.19830063044753
H         1.46423439900271   11.22587898050692    7.37981650768413
H         3.21036522527514   12.36776022540796    6.13056570205407
H         4.32666249560092   11.50094264024190    2.99145607086670
H         5.39386866635830   13.64047639207465    3.64202632397118
H         4.08866849889610   13.96323807332558    4.78811008999661
H         5.14944065946389   12.56157126730129    5.00385689476376
H         3.59322377300488   13.73802038895517    0.36597391890520
H         4.77266208479390   14.19902425366802    1.60143751166853
H         4.72239841594238   12.52854442799420    0.99191365828542
H         1.76340616221164   14.51773467422658    1.79462300418978
H         1.65404950786558   13.89965835305453    3.45045288492464
H         2.97363295301508   15.00585559369651    2.99183872343586

