29
CSD_code = ZISYIK | q = 1 | S = 0 | Stoichiometry = C14H10ClFeO3(1+) | MND = 8
Fe       -0.23870629208350    9.59621904092777    6.46122104252827
Cl        0.07970762904871   18.12933996858908    7.97406224347968
O         2.25207743350068    8.72596160310247    7.66664208779635
O        -1.46940550610683    8.56075917728433    8.87457957503722
O        -0.13442916468294   11.50597420728377    6.98710394120714
C         1.29212672149492    9.08716886593753    7.18388341853560
C        -1.00788551924979    8.98664410409835    7.93061156744014
C         0.09916712002568   12.20875975161431    7.98067916701776
C         0.09002803366851   13.64143305070793    7.97193174816929
C         0.34816572116754   14.35445399965894    9.15616280932965
C         0.34352424410193   15.72903770145546    9.15658656286444
C         0.08276260260188   16.42407971942797    7.97291178844359
C        -0.17484391841818   15.72983204261789    6.78740671450565
C        -0.17243284459222   14.35660180338945    6.78828896366844
C         0.32748656063872    8.83518181218122    4.38552032137517
C        -0.65591592042182    7.99523038937458    4.98157162970857
C        -1.85893474851642    8.74690838388310    5.10206040628557
C        -1.59740617354623   10.05351235978879    4.65418765700176
C        -0.24205682670418   10.10763840931411    4.20911114098603
H         0.32855236607720   11.73257519324102    8.94623450453317
H         0.54974380665788   13.81554967023290   10.06937562330856
H         0.54021291289718   16.27832206454798   10.06347661756922
H        -0.37305949073379   16.28060312026163    5.88171125081068
H        -0.36903467059644   13.80633921698380    5.88101984105782
H         1.30020382723929    8.52076013829457    4.04614214951593
H        -0.56770044545015    6.92963658339600    5.11951786342159
H        -2.81850274703295    8.35484991116147    5.39497066236887
H        -2.32319186539632   10.84209434083299    4.54576285659121
H         0.21994715441300   10.94383337040898    3.71166584544130

