53
CSD_code = ZISYEF | q = 0 | S = 0 | Stoichiometry = C18H24N2O8Ru | MND = 6
Ru        5.18812500749841   -1.86523056699893    5.57413928566535
O         4.86638916301361    0.88090917812290    4.59696032418007
O         6.37819205324142   -3.48474513075382    8.47252390885293
O         7.92702977822668   -3.76751948506953    6.86986146074006
O        10.17972279632927   -1.96504963584882    6.07389109697052
O         9.46374766861698   -1.81001724169466    8.19253281140527
O         3.17854588551854   -1.65178637216365    3.32778244322700
O         4.20746486768737   -4.55672439466800    6.63613778148997
O         3.50352475951134   -0.32107188649081    7.52677255172089
N         7.01377220964613    0.25265589219427    4.61567888354389
N         6.70374637279594   -2.62665462376576    4.35340111799203
C         7.43268996901780    1.49934927980904    3.98214339971164
C         8.30998045091942    2.33956537676208    4.90723805621049
C         8.10934681460745    1.23618643574589    2.63840097299219
C         8.02307053849009   -0.70957899649999    4.99010343149990
C         7.81969313021126   -2.02672574882552    4.30998254776309
C         6.55927642483577   -3.87880428745919    3.59891491474742
C         7.73466327776211   -4.83561991993407    3.80755237751525
C         6.36034410634584   -3.53381691281277    2.12109268536923
C         5.69048548685831    0.01680643250252    4.86680530481019
C         6.80062999730729   -1.65025789237380    7.07011385671019
C         7.10969327825775   -3.05153152448893    7.42039726228144
C         6.59242204901537   -4.82825658709398    8.87191602240765
C         8.04204870671359   -0.92616181939610    6.52836641288588
C         9.33855102449712   -1.65202849125521    6.87588990576439
C        10.60715615860033   -2.53779035103367    8.62256395474248
C         3.93325965337403   -1.79538854656415    4.17045347110306
C         4.69318151457994   -3.60511669355567    6.23410890055472
C         4.09519961169251   -0.94150493702282    6.77657255742605
H         6.49121682729661    2.03405339620598    3.80786560014720
H         8.50007789444071    3.30607180393130    4.44784370058009
H         7.80282231462763    2.50477719011280    5.85462404889987
H         9.26798627064504    1.85976527102731    5.09854222840230
H         8.26234394854840    2.17738186654758    2.11706948349625
H         9.07813134698362    0.75649805521766    2.76396112877419
H         7.48002481593583    0.59917160839065    2.02089849069047
H         9.00187408030207   -0.32014369035443    4.70275814934890
H         8.67682266638592   -2.44609341986130    3.79133632531695
H         5.64584886616432   -4.36482966444423    3.96609744663375
H         7.43434844937658   -5.84232372149704    3.52950720993001
H         8.59415166141132   -4.56289767824315    3.20092048491202
H         8.02915398860184   -4.83239216436783    4.85504468626759
H         6.15776460652625   -4.43873871942091    1.55480295127646
H         5.51998576679818   -2.85163051225222    1.99855973646231
H         7.25299124075042   -3.06093713306039    1.71670170143662
H         6.45862124249739   -1.15574626171103    7.98752906270597
H         6.01878535771379   -4.96697102876933    9.78472270643909
H         6.24895597800021   -5.52140372263654    8.10013286530559
H         7.65478423111572   -5.00456555226568    9.05440109053452
H         8.09437104429176    0.06550642716652    6.99095497553461
H        10.56688016074077   -2.55389046514265    9.70851472868265
H        10.57065528120338   -3.55086418401758    8.21722801813814
H        11.52014920446930   -2.04968824992260    8.27588547980103

