78
CSD_code = ZITFIR | q = 0 | S = 0 | Stoichiometry = C25H47Cl2OP2Rh | MND = 5
Rh       -2.43702695062544    7.71611219947350    7.27456649519714
Cl       -0.68863055082603    6.23844464360779    7.58076574250839
Cl       -4.04697521256137    9.35953014478347    7.44511784073239
P        -3.75548935116297    6.22378664268295    8.52267486362462
P        -0.90768592644318    9.37372758363386    6.59962445211017
O        -1.80887436054196    6.84492316588524    4.76549668075604
C        -2.78431395495941    7.07704633307523    5.41942901319244
C        -4.14811453179825    6.81883053641178    4.88291720956414
C        -5.22465493483998    7.69771656015423    4.95594063198077
C        -6.41065173537187    7.39450989283265    4.31020363031354
C        -6.54448007312151    6.21380440256299    3.60014488991846
C        -5.47269898445554    5.33910381552721    3.51336983658465
C        -4.27716929036835    5.64429857029123    4.13332149434599
C        -3.43432520132670    6.60314449569160   10.33104438767269
C        -2.05813476786846    6.13676550668758   10.80567516564296
C        -3.58889051787445    8.10560392358516   10.55774362067282
C        -5.62853864316181    6.40684458195445    8.41708948838459
C        -6.22407264773940    5.52655627820349    7.31957234826403
C        -6.42509335469773    6.20382719860890    9.70493722053257
C        -3.30057716606252    4.41104236486655    8.46226552016300
C        -3.25065112499324    3.86963135281540    7.03651381464940
C        -4.11365394067899    3.49767314520985    9.37335799139627
C         0.69880608745600    8.80639158881557    5.80051168999902
C         0.59096371656823    8.67412358037163    4.28183287958006
C         1.95096482722357    9.61341826483690    6.14399047861016
C        -1.61799910695599   10.80393411629398    5.62466924650609
C        -0.63650377286518   11.92685666035634    5.30568357493696
C        -2.35055584694534   10.34397537249659    4.36658193371392
C        -0.29699049660636   10.24283174876790    8.14353369312173
C         0.15856225449233    9.17958969220838    9.14097072704005
C        -1.34837470443065   11.14915710479423    8.78104998479047
H        -5.13867770050470    8.61915550227189    5.50829879641484
H        -7.23537206912122    8.08904928053911    4.36560606167042
H        -7.47621364432141    5.97799985468716    3.10771705352228
H        -5.56343482185145    4.42219716297320    2.95012674498641
H        -3.43061297277357    4.97994117210900    4.04583248770387
H        -4.19891952341050    6.07755425545582   10.91246714259874
H        -2.03286115716041    5.06158748307792   10.96573798228901
H        -1.81690116056861    6.61965587061600   11.75226296162399
H        -1.28253452740268    6.39051446371409   10.08508917689663
H        -4.53229178806965    8.47956950074883   10.16371498017397
H        -2.78396979577370    8.64354164503131   10.05542689562009
H        -3.53895729120176    8.33946132060598   11.62113243236118
H        -5.74900497304207    7.45246682228077    8.10548979019749
H        -5.60825850873248    5.53743815017595    6.42704568161058
H        -7.21254815372718    5.89571158378316    7.04938063205500
H        -6.33497680767075    4.49943462319934    7.65870480385826
H        -6.18435741392928    6.94412627905969   10.46226232687949
H        -6.27777702824044    5.20979985490775   10.11979690807936
H        -7.48380320440986    6.31096839349096    9.47004686016650
H        -2.26411698352383    4.42665957256446    8.81961121764184
H        -2.64722470199033    4.52725272360668    6.41383425013688
H        -4.23893357791174    3.77095384704514    6.59647282895598
H        -2.77978729369146    2.88749255693774    7.03865668108286
H        -4.14712435620020    3.86894887139292   10.39470694928976
H        -3.64975281477574    2.51191032504902    9.39264490620374
H        -5.13088174578376    3.37520117656436    9.01132584117693
H         0.82289034079800    7.79432110441795    6.20538738976979
H        -0.30494816258001    8.13225152336101    3.99855982768912
H         1.44889494464903    8.11353017205045    3.91245035325775
H         0.59662035202327    9.64693662880852    3.79576767868768
H         2.20470813745752    9.55908099874741    7.19885447599631
H         1.85424003952668   10.65719564811920    5.85492825577301
H         2.78830730314277    9.19299920142600    5.58773972631428
H        -2.38323415140238   11.19268397388145    6.30787525872504
H        -0.11593239298110   12.27562704590813    6.19423781940699
H        -1.18480287490090   12.77052756591741    4.88712222922618
H         0.09881135347719   11.61402443093816    4.56927128957945
H        -3.01634819414052    9.51455125028242    4.59866681354831
H        -1.66434078262353   10.02723584808839    3.58724406938201
H        -2.95535273539582   11.16179202178182    3.97680198817631
H         0.56208828872069   10.85871649449957    7.85940158396854
H         0.87286671099345    8.48908547981221    8.69623327831489
H        -0.69831739822021    8.59281681285839    9.47608743059262
H         0.61719149891140    9.64215308653578   10.01481468069966
H        -1.49676599524871   12.05935929158807    8.20514153759641
H        -1.02344767976952   11.43614663627266    9.78096328112933
H        -2.30840432310935   10.64487102532377    8.86956209247532

