83
CSD_code = ZITFUD | q = 0 | S = 0 | Stoichiometry = C41H37O2P2Rh | MND = 6
Rh        5.25862199483665   10.99133719087364    3.26545339959316
P         3.01551919705329   11.52192930099557    2.96630621414999
P         6.33702919433972   10.45963760191832    1.09314574096870
O         4.89009994327614    8.14761755259085    4.17666173081024
O         7.66103240305832   10.90544466158066    5.56679101372261
C         5.02312525151206    9.24380829244893    3.83760470041256
C         5.81890600546655   13.05778050005414    3.15484770766824
C         6.22348441770272   12.56073656632676    4.43410762171174
C         7.17724130420039   11.53871345220300    4.44592077610058
C         6.77405136701605   10.76214556359127    6.64759604415511
C         2.55200996920285   13.02327220799487    3.90201321431596
C         2.74899242016799   12.96610373165734    5.28083252469591
C         2.47887335712319   14.06271664502800    6.07440973752933
C         2.02077858601412   15.23694111483277    5.49509812068673
C         1.83082180058947   15.30244141223222    4.12568749830695
C         2.09359749031678   14.20111417509755    3.32745231698387
C         2.42815648620451   11.95707172425658    1.28624984901563
C         3.29789068687706   12.69895905523432    0.49207447166394
C         2.95174579626976   13.04745970214804   -0.79800566432107
C         1.73071880083398   12.64574758305660   -1.31545492420365
C         0.86092926656415   11.90678527354049   -0.53261213510262
C         1.20275922388837   11.56281074710536    0.76404824959089
C         1.66893256491670   10.39500544305042    3.48996699238706
C         0.52291372523483   10.83319648519606    4.14675568665300
C        -0.46541371130898    9.93134168919044    4.49977125856533
C        -0.32782366417662    8.58730551043848    4.19600684741822
C         0.80561281095605    8.14445673979335    3.53376503408900
C         1.79673354467164    9.04285244769335    3.18671148088569
C         5.26662484930351   10.25582840759983   -0.37811095271757
C         5.58150794518035   10.66989106439928   -1.66686031909464
C         4.68346676835751   10.45926735365639   -2.69895477864456
C         3.47547739726089    9.82620586696290   -2.46132624759840
C         3.16307170007015    9.39525945679162   -1.18216777925644
C         4.05300047850703    9.61503791292440   -0.15035843320207
C         7.67345129888237   11.52210245670472    0.44620478119269
C         7.33423156939794   12.77223181828713   -0.07163190885695
C         8.31653365731038   13.65582474192841   -0.47463466043828
C         9.65332686053932   13.31181418858892   -0.34824570482242
C         9.99897084023941   12.08192024676365    0.18603415872426
C         9.01761116027530   11.19302791693328    0.58772989630663
C         7.18865568688422    8.83605956061704    1.06159499760327
C         7.31039777362995    8.07440453669992   -0.09560458580704
C         7.98665988889192    6.86807035730798   -0.06396291555386
C         8.55239265718477    6.41318936156024    1.11579683050966
C         8.43967641113282    7.16983421085351    2.27033703329627
C         7.75905999839654    8.37314631351397    2.24357410130802
H         6.62024537386357   13.22891868853398    2.43503039687477
H         5.12279153597879   13.89550446300218    3.18096248349952
H         5.70060683080560   12.86199713363230    5.33747143782588
H         7.96198676690055   11.53470774135206    3.68932093608381
H         7.23213752919854   10.04815976537219    7.33062191711768
H         6.61323918859670   11.71029073476483    7.17224937393550
H         5.80423187305190   10.37309604473744    6.30029713803546
H         3.11500771486188   12.04307254125195    5.71671919411602
H         2.62832199989310   14.00944574316107    7.14348970826334
H         1.81524169713214   16.09946589230979    6.11196959109992
H         1.47572770881100   16.21739834610019    3.67338004277661
H         1.94240112077562   14.25976881533257    2.25879739182024
H         4.25382095482669   12.99018305049107    0.90769341775132
H         3.63341262202835   13.62410702164645   -1.40692963017157
H         1.45977640769337   12.90649402909853   -2.32797184999432
H        -0.09203257012409   11.59307160041635   -0.93418386840036
H         0.51552590822922   10.98433086235133    1.36433089123654
H         0.39975702410438   11.88083018359446    4.38140392043453
H        -1.34958701493194   10.28182276025782    5.01272792653734
H        -1.10150632683142    7.88704363345271    4.47463249000986
H         0.91907523260628    7.09766900587707    3.29249570417213
H         2.68598522227062    8.69673558626335    2.67801996212195
H         6.52659865740295   11.15314078573806   -1.86981118974802
H         4.93256264237269   10.78841142798809   -3.69785445865329
H         2.77937290759868    9.66739930823565   -3.27175314010665
H         2.22386361159769    8.89736220418091   -0.99027148700585
H         3.81701390368641    9.30165052957880    0.85936131774063
H         6.29033523110936   13.04065810375704   -0.16477890012244
H         8.04163267365773   14.61802834543769   -0.88291417563418
H        10.42220675778272   14.00317071110193   -0.66023920359861
H        11.04001682206930   11.81303473967724    0.29294124641479
H         9.29694722956877   10.23725272438073    1.00827561254282
H         6.87354612157135    8.42129228529584   -1.02100525408082
H         8.07319873919393    6.27988016508231   -0.96637002348284
H         9.07843030335719    5.46988467856481    1.13501085252636
H         8.87875655350272    6.82061054547482    3.19353195638495
H         7.66339387149247    8.96296166025869    3.14662925029276

