187
CSD_code = ZITGOB | q = 0 | S = 0 | Stoichiometry = C74H100Cl2NiO8P2 | MND = 4
Ni        7.05867578654596   10.11191111920827   10.36726164187988
Cl        5.71257069724491   11.71669734936956   10.66703559967605
Cl        8.68093071949730   11.20372668094409    9.57934629649522
P         8.55050937864228    8.72103268319400   11.01288385051219
P         5.45201608187401    8.69393494305411   10.24640418820752
O        11.78033631559390   12.57599052706223   14.12444500036382
O        12.36206408219077    5.78918676060340    7.52486729799189
O         2.73042041336326    6.43574796747521   15.02025323136464
O         1.51547262314597   11.68470742677716    7.00416293254001
O         6.40407961587736    4.13770036815009   14.08903976267957
O         6.08031361383176    4.17395830368881   11.81365339861993
O         8.26077489864004    4.30360581777717    9.55264570321546
O         7.78725441625079    4.11367571683055    7.31024389185788
C         9.57441637078179    9.68610221804047   12.16406582271919
C        10.91420080038919    9.46479694603442   12.43493011785008
H        11.39185999262113    8.60095713223947   12.00560909421770
C        11.63628035479010   10.37134516979962   13.19804580075620
C        10.99140821390449   11.55138297901376   13.62327876341562
C         9.59852328766884   11.70245337958075   13.51846936421658
C         8.92475313274075   10.75665992005034   12.75933216328193
H         7.86019964072421   10.87718546646789   12.55920781799553
C        13.07524029880797   10.06342538429434   13.61130047159237
C        13.17103723514185   10.18473646246785   15.13975689384275
H        14.18570186869883    9.96706290991947   15.46674310307077
H        12.49460716774164    9.47739416244028   15.61628316224531
H        12.90906861304331   11.18638641438650   15.46404933851563
C        14.08339327382230   11.01381035088031   12.95238884905697
H        15.09257214867754   10.63048734533439   13.09141245127139
H        14.03772136292500   11.99966547606657   13.40006817740847
H        13.89194274500321   11.09269113914440   11.88379156652677
C        13.47941911934092    8.63225696223761   13.23765969162911
H        13.53776068411617    8.50688269628697   12.15882805525452
H        12.78125051759041    7.90788010379490   13.65210841377178
H        14.46368824526789    8.42034547963919   13.65064494891523
C        12.00929984313517   13.59612269662840   13.17000721456112
H        12.47016915411736   13.19716460054481   12.26120682178347
H        12.68469444829837   14.30832964109244   13.64290127053403
H        11.08510400079163   14.10414324888900   12.88366271095038
C         8.74957156612323   12.79278418675806   14.17381857861891
C         8.22790735954456   13.75885404472317   13.10131870626196
H         9.04170115656555   14.28938861740166   12.61246338561765
H         7.56715952758862   14.49321437365669   13.55667028155480
H         7.67057331832914   13.22686527789343   12.33409220938043
C         7.53826214490789   12.11570772672256   14.84297700348337
H         6.83650468913413   11.72983874261464   14.11087872541541
H         7.00219996208821   12.84251099674034   15.44868857379234
H         7.86291174117611   11.30281443501061   15.48981176551191
C         9.47366073383028   13.56886341336168   15.27983958218024
H        10.23058056362502   14.24171297944217   14.89515459962804
H         9.94521222267465   12.88466498834591   15.98145717236272
H         8.74874506086626   14.17227549049941   15.82391453395887
C         9.65726751017508    7.74759176413631    9.96399931142169
C        10.42796157356968    6.72697793885382   10.49471200423934
H        10.34406507574200    6.51638464163173   11.54919333327265
C        11.28927854148115    5.98246170050082    9.69743531389223
C        11.37362984664671    6.33166845495634    8.33649237107819
C        10.46533356985732    7.23801344204923    7.74934747700588
C         9.63595614555809    7.95617986554776    8.59541823657296
H         8.96876090340916    8.71456699883855    8.21685229268456
C        12.03416396881346    4.82733157340037   10.37734014890453
C        11.06591500763807    4.09619199709127   11.32994990782860
H        10.11711174609251    3.89559275239163   10.84043283049168
H        10.87055369516175    4.66859660443255   12.23306906350353
H        11.50426888754371    3.14949446198996   11.63822511881558
C        13.19390017770402    5.37672828889120   11.22049959782567
H        13.92056839648974    5.90810620420378   10.61057357564879
H        13.70593131563295    4.55775048660285   11.72126616554998
H        12.82403606440370    6.06332902052027   11.97726947916181
C        12.56497371220402    3.77047924953908    9.40125915949797
H        11.77977134460524    3.44236599587382    8.72442545916825
H        12.91236709043230    2.90510197282351    9.96352358380026
H        13.39752246794082    4.12753933484644    8.80744463727928
C        13.61113868424456    6.43795448660403    7.65746429068127
H        14.22596189226897    6.08809027889427    6.82848634896002
H        14.10757178236206    6.18506424784650    8.59966392253964
H        13.50773691224470    7.52552401722939    7.60640000508804
C        10.34315448568800    7.41339499491783    6.23579218908376
C        11.56836518768205    8.13223499015067    5.65327092338713
H        12.42886542128443    7.47376382730959    5.61619622596169
H        11.81032438100872    9.01358188664777    6.24422497519328
H        11.35201584790403    8.45394130171089    4.63667205496611
C        10.19036192862865    6.03622495035072    5.57307741364047
H        10.12579469342710    6.15494226839248    4.49345124618365
H         9.28269022835966    5.54604245665210    5.91666891376167
H        11.03780320638317    5.39680876832218    5.79835417160793
C         9.10477016678592    8.24087609255413    5.86566373545867
H         8.98914682135412    8.23857466017487    4.78354102553030
H         9.20642819585524    9.27523210449944    6.18508024170146
H         8.20237251541465    7.81619292378320    6.30083391779783
C         4.58939614042249    7.97930618654678   11.66488099659488
C         4.65136643901339    8.67002246903667   12.85830372829074
H         5.25010943406864    9.57017161480096   12.88108671995009
C         3.96559473416549    8.23861052726899   13.98822886864083
C         3.26448566295385    7.02760038411525   13.88583353300912
C         3.07969288911975    6.37704922918553   12.64441242806405
C         3.77544643107062    6.86081874921890   11.54822532720299
H         3.71353680789561    6.37908110196891   10.58587566366363
C         3.99275267861605    9.17425397602902   15.19870411951427
C         2.97066664832037    8.85068740210100   16.29439334704392
H         1.98122366338971    8.70958099999763   15.86807559251958
H         2.92583433001206    9.68627175934419   16.99109664355460
H         3.23038940123886    7.96717431196663   16.86581703545743
C         5.40435587628878    9.18274728872462   15.80047287070625
H         6.14713811824035    9.41461438544949   15.04244572933158
H         5.65313553193194    8.21346359022776   16.22873369497102
H         5.46710197993127    9.92974010185149   16.58837519518016
C         3.64289779163289   10.59170030595222   14.70560884893403
H         4.36853861998845   10.98910827982526   14.00459807951059
H         3.59922807834115   11.27178767595956   15.55326669121033
H         2.67029577373500   10.58803958181114   14.21859630585646
C         3.70095685252373    5.72654724430055   15.76548401831496
H         4.12332545694072    4.89539727759878   15.19236182596490
H         3.18867327366795    5.33703428956225   16.64418714461119
H         4.52695052765175    6.37143911810161   16.07757348350439
C         2.00805302092010    5.30117440329995   12.45430952535214
C         2.10065313149688    4.12656444016651   13.43554887128575
H         1.38323710227670    3.36009940368393   13.14800177918632
H         1.86847943131239    4.43667424230884   14.44707408872788
H         3.09244729733682    3.68192750862007   13.41279920050826
C         0.65976895160901    6.00975025278853   12.66565323841471
H         0.54655105509798    6.83660936192417   11.96713073697010
H         0.59661970333029    6.40183452669107   13.67713373788524
H        -0.15935744650021    5.31131972883613   12.50904127008313
C         2.03432614962271    4.70513475913644   11.04092749307793
H         1.26590051662432    3.93876369553087   10.96234236469696
H         2.99670036961545    4.24267880320981   10.82955330021816
H         1.82439442308756    5.45313763280366   10.28060834272124
C         4.15551473227712    9.37310689690702    9.17664496859267
C         4.61625209654795   10.15399420022671    8.12102529346484
H         5.69002356652966   10.24413023772700    7.99449519907526
C         3.74618205863577   10.85602397844682    7.31109347439591
C         2.36952151502930   10.78010263413175    7.61660501964731
C         1.87673429412721    9.84781946755960    8.54214356157172
C         2.80070435442374    9.18991906618878    9.35177115100153
H         2.46277778749003    8.54745002631666   10.14934042382898
C         4.27327202996421   11.64230358064377    6.11368163829520
C         4.11792569067578   13.15367856363136    6.32573518678445
H         4.69415780549241   13.68917542641435    5.57393531945663
H         4.49182890192225   13.43609922016388    7.30769663906628
H         3.08146118692811   13.45737967885803    6.23088556566087
C         3.49722072900927   11.20516246464549    4.86254214611681
H         3.85233801244388   11.75766780647660    3.99532118569912
H         2.43455850269308   11.39084248503231    4.98113688685262
H         3.64593043330569   10.14226736311095    4.67923502859267
C         5.76068875151029   11.36191704771197    5.86254383600387
H         5.95169444395501   10.29697509664293    5.74359497541140
H         6.37931164619045   11.75091503424173    6.66774899552490
H         6.06436982197522   11.85933688859634    4.94364330478784
C         1.17660818637254   12.75966965244062    7.85999361255097
H         0.59888891970140   13.45865012195720    7.25642480360149
H         2.06949811447631   13.25676189656715    8.24999525076365
H         0.57417724713379   12.43022059862815    8.71180486095323
C         0.41106933786412    9.43811390457432    8.70843582729949
C         0.35071943709987    7.90001632729126    8.63330971677907
H        -0.68549598651546    7.56965888603122    8.66075964392698
H         0.86836540555090    7.42896517364602    9.46312091675346
H         0.79858059333906    7.55036612026827    7.70534970231649
C        -0.11433246688361    9.88890993942236   10.07796250879974
H        -0.11234119598895   10.97357493446137   10.16018319752063
H         0.50109796333947    9.49339808782103   10.88273563630062
H        -1.13486129584764    9.53825496269468   10.21856376320039
C        -0.52314172488381    9.94894969323498    7.60610716285066
H        -0.71545091156134   11.01267476300914    7.67975626504352
H        -1.48129036955773    9.43757961350641    7.68727318690438
H        -0.10647548006248    9.74116018123357    6.62421966144268
C         7.86776656039903    7.38798117551569   12.06397108296322
C         8.02934026700504    7.37417629319611   13.44108323601705
H         8.55826501952585    8.18945752766601   13.91303728914331
C         7.55111062632694    6.33091675659499   14.23015301427533
H         7.68397382488725    6.32217483182933   15.29884469300734
C         6.92894109517623    5.29557894326511   13.57833736609309
C         6.02371156362343    3.37008372188721   12.96803230879748
H         6.71438583844773    2.51398762412062   12.85808427253699
H         5.00297757148064    2.99026104336190   13.10625569982181
C         6.73996149847945    5.31175115841104   12.19576084723144
C         7.16391517352768    6.35823724015805   11.40931831248730
C         6.90365145514040    6.32771049898386    9.95887813253531
C         7.41574829876293    5.31318410483126    9.18179785146499
C         8.55892120875652    3.59573750161683    8.36888987348282
H         9.62975850226838    3.71359818126973    8.13042183461095
H         8.32670372773442    2.52960459650215    8.50756861954501
C         7.12971634626898    5.19607336321434    7.82097751835035
C         6.29063501489905    6.07639067057786    7.18566150087901
H         6.05879117543745    5.97534151270159    6.13877796801344
C         5.75823637213010    7.10397718501065    7.95898461972361
H         5.09422661714682    7.81355771210815    7.48874508093746
C         6.04475065957265    7.24067349913827    9.31019085282004

