55
CSD_code = ZITHOC | q = 0 | S = 0 | Stoichiometry = C18H29Cl2F3N2Zr | MND = 9
Zr        1.28318165558970   11.95674441476682    5.82476569024511
Cl        1.88934136638292   13.72545297616213    4.38561175931304
Cl       -0.91008862713067   12.62370595749064    5.30019107433713
C         2.27557062772337    9.84840993872372    4.70242885692239
C         2.86043344860419    8.61293882625928    4.00632639935153
F         2.90912883669059    7.57222692714814    4.85900396698295
F         2.15403434291152    8.22288300291443    2.93223876713866
F         4.11814479337175    8.74433116450397    3.56712065597921
N         2.95099293572867   10.96031411173362    4.89161799608071
C         4.23707590853086   11.33636881045366    4.33541096902028
H         5.00908874438701   10.58203301401252    4.52908624849696
H         4.51558335856612   12.26120770372383    4.85456090875272
C         4.14634385900814   11.63859926258259    2.83630274985117
H         3.88095227078222   10.75310845367942    2.26380048857643
H         5.10650015416722   12.00275800581665    2.48156834056227
H         3.39459818553668   12.40797841354558    2.66717244714651
N         1.08617041869330    9.85429885976038    5.28255221992213
C        -0.09254220693073    9.01503701675948    5.04215821389619
C        -1.07172941392260    9.35193899541790    6.18056115687913
H        -2.04711733257841    8.92409331052940    5.96218414524348
H        -1.18004493069582   10.43283540725310    6.28236865890671
H        -0.71247710691026    8.93033424672478    7.11613340721993
C        -0.70365446564205    9.45425016273228    3.69922388159321
H        -0.04280251072493    9.20834646808096    2.87020435919760
H        -0.87585997609571   10.53374726925412    3.70579833444865
H        -1.65392486323198    8.95099493156819    3.54077925429918
C         0.12184370889260    7.49468251992996    5.06540666259279
H         0.58652477041378    7.11953231418258    4.16033815733513
H        -0.84937745678560    7.01339537340337    5.15171334471476
H         0.72272715044761    7.20187251359155    5.92349556132374
C         2.84749756069513   11.70612895980282    7.75767020001175
C         1.59668077417382   11.15200956391778    8.15708892187464
C         0.62502658816368   12.19294500115810    8.14744253935941
C         1.28140013904538   13.38980596167272    7.72247870121432
C         2.65888069477983   13.09010654599512    7.49775345652818
C         4.14633300147796   10.95191463426636    7.80832201244256
H         4.45067051657982   10.80017009672548    8.84694285461065
H         4.94167082508535   11.49329698489708    7.30157296128038
H         4.04790311707261    9.96905252298762    7.34547701221777
C         1.45032461493058    9.75216094019771    8.68659659102226
H         1.66077221038955    9.00928261024448    7.91384748564455
H         0.45022716182893    9.58035437887153    9.07759399524752
H         2.15867022268380    9.58991844232688    9.50127427250436
C        -0.79309536471890   12.12843425637294    8.64969277069430
H        -0.89435974839506   12.73719000461460    9.55048683219256
H        -1.07682306649875   11.10809430706473    8.89848301856665
H        -1.49564104731334   12.50986440044461    7.90598435085354
C         0.65732173718446   14.75250629069365    7.58889683468069
H        -0.42514771263793   14.67215139720926    7.48763286390099
H         1.05157999402904   15.26727310945921    6.70921161395487
H         0.87468915042957   15.36570530754544    8.46694316941890
C         3.71186725911128   14.11614187512271    7.17887397879190
H         3.73034348730884   14.88151380235588    7.95686535564244
H         3.50648058206004   14.61018258423207    6.22650572829125
H         4.69920965675277   13.66127564912004    7.13073780272021

