71
CSD_code = ZITHAO | q = 0 | S = 0 | Stoichiometry = C21H40BN7PRh | MND = 4
Rh        2.02009964622696   11.03947841836806   12.78298351104988
P         2.67030347642040   12.93615560469164   11.73002295067142
N         3.21983283354384    9.86201706088812   11.40697542422274
H         4.13633549468909   10.30762944416309   11.38544702797438
H         2.72343969035152   10.14850454618921   10.56300931856815
N         0.70195594784107   11.91460338250436   14.01210861895008
N        -0.52745944363353   11.38792315973411   13.91206274833989
N         1.62876720813458    9.46294077097058   13.95494176815438
N         0.35519045730899    9.09544625215633   14.11969829430077
N         0.07963342358514   10.54634048300749   11.21099413431166
N        -0.73547454378141    9.79250251988810   11.96045247451123
B        -0.77958253456416    9.92609990858376   13.48330125349966
H        -1.82378646021205    9.55867913600116   13.89992435982164
C         3.40705099958478    8.40772782454842   11.34276724828340
H         3.80818043199504    8.07265037112811   12.30401150205258
C         4.40691432790294    8.04878741513762   10.23906802770407
H         5.37300903046112    8.51767414883241   10.42160376728065
H         4.03871663610851    8.37989336004245    9.26892139352224
H         4.55614040499725    6.97314585763149   10.19598063773116
C         2.06944592182776    7.72294810917069   11.09611706546787
H         1.34717657177429    8.03735722860912   11.84261622514518
H         2.17866969417170    6.64293257077753   11.15151061661276
H         1.68036972911268    7.98311911824526   10.11372340502738
C         3.93387073731571   14.10680078752402   12.42194440085103
H         4.21772378984497   14.84404802322765   11.67230093056530
H         4.81749003584760   13.54592908152153   12.72123882158335
H         3.54461419436160   14.62272032290003   13.29229562772527
C         1.34553080531084   14.15501229136899   11.34373679098779
H         1.72411005636251   15.01638692473959   10.79504334771545
H         0.89695419325370   14.48398777291290   12.27863120761599
H         0.57429244491540   13.65213460111863   10.76518420314064
C         3.48213597022022   12.82903047407693   10.05739485322503
H         3.54647137963278   13.81690856626809    9.60434443077824
H         2.92946971479555   12.17620633796157    9.38954732460439
H         4.49203613515758   12.43626394833712   10.17266120597312
C         0.62597225020318   13.01592729619316   14.74795364317725
C        -0.70938903418710   13.23714915771490   15.09873465049931
H        -1.10176248707173   14.04815050024071   15.67930392734915
C        -1.41157877335948   12.18343980507947   14.54858913924378
C         2.39089365447292    8.71265886341942   14.74000128526296
C         1.57567212230466    7.80298851089649   15.42085736043673
H         1.88223402140708    7.05578794791406   16.12533928998871
C         0.28662890127206    8.08138974040817   15.00587202297658
C        -0.16917463020292   10.24850750164129    9.94183485256334
C        -1.16074868405019    9.26259086746910    9.86823695782478
H        -1.57445407517055    8.81639038769262    8.98530839399853
C        -1.49794233302394    8.99753116843880   11.18010730787561
C         1.82771957962084   13.76961657747865   15.19520867047076
H         2.71628989524175   13.23065358365594   14.87012206773462
H         1.83291836932635   13.84221424762927   16.28248852341229
H         1.83616893654743   14.78299451096043   14.79447083334675
C        -2.87567748080805   11.92765198941547   14.60539921305004
H        -3.26035731779407   11.69549751523044   13.61461972018941
H        -3.38345239821856   12.80923934924043   14.98883791385443
H        -3.09867717391992   11.08602205254350   15.26044747271939
C         3.85803534147638    8.93680359438640   14.86760924341634
H         4.13415509150313    9.79630607367947   14.25194873528467
H         4.42789247185527    8.06033564944360   14.55877144798944
H         4.11222204300829    9.15126312518611   15.90499282200366
C        -0.97890525990541    7.42963328052747   15.43573154086742
H        -1.61661507108152    8.14076021704018   15.95902897871230
H        -0.75256174416842    6.60321572233540   16.10483683648743
H        -1.53335669425981    7.05022935274533   14.57962989510180
C         0.50591923299520   10.91517105103033    8.79165495121621
H         0.82262722169902   11.91472923767113    9.07715574017663
H        -0.18219055784947   10.98848677562835    7.95150824292230
H         1.37723989964003   10.34739580153374    8.45600933607956
C        -2.48453850612785    8.01174376389732   11.69547916175078
H        -3.20734828942087    8.49057983851870   12.35331687717730
H        -1.98136666355513    7.22682116441615   12.25962491506890
H        -3.01252025925615    7.55623795545972   10.86120311181278

