41
CSD_code = ZITKAO | q = 0 | S = 0 | Stoichiometry = C8H16B2N12NiO2 | MND = 6
Ni       -0.00000000000000    3.72364613479836    0.13384936608395
O         0.00000000000000    3.03210100977968    2.49854309782254
O         0.00000000000001    4.41671597928329   -2.23083581775433
B        -0.00000000000000    6.45434477016563    2.00503122294949
N         1.21696368169013    6.16001361034703    1.10464600853765
N         1.32937489044397    5.07136040721802    0.33031298261723
C         2.47619579048661    5.22263568036114   -0.32463409848878
N         3.10539862609781    6.34578513175354    0.00439405217250
C         2.29385022067274    6.90467578607812    0.88964378231786
B        -0.00000000000000    0.99567633929867   -1.74146164573579
N         1.21721835430098    1.28960349348845   -0.84125357749208
N         1.32880173762863    2.37600887103397   -0.06362875237195
C         2.47653970261871    2.22455016112609    0.58961447027894
N         3.10720821619959    1.10349094509944    0.25634879343900
C         2.29565976861194    0.54614402861036   -0.62987324204870
H         2.86811061835919    4.52184281515884   -1.03521690360632
H         2.47547957555273    7.83830925019879    1.37988478433117
H         2.86785286633873    2.92360119915848    1.30220646180287
H         2.47852458225306   -0.38537906017925   -1.12355190472758
H        -0.00000000000000    7.60230383797294    2.29665540395423
H        -0.00000000000000    5.72060754967973    2.94606344628777
H         0.00000000000000    1.72940541574989   -2.68256371783074
H         0.00000000000000   -0.15231136803292   -2.03331727812194
H         0.77131783937294    3.41912203747837    2.92319897591903
H         0.77138736352418    4.03029080872090   -2.65587387150863
N        -1.32937489044395    5.07136040721805    0.33031298261721
N        -1.32880173762863    2.37600887103395   -0.06362875237194
H        -0.77131783937295    3.41912203747833    2.92319897591903
H        -0.77138736352424    4.03029080872105   -2.65587387150860
N        -1.21696368169013    6.16001361034703    1.10464600853763
N        -1.21721835430098    1.28960349348845   -0.84125357749209
C        -2.47619579048659    5.22263568036114   -0.32463409848880
C        -2.47653970261871    2.22455016112608    0.58961447027894
C        -2.29385022067274    6.90467578607812    0.88964378231786
C        -2.29565976861193    0.54614402861036   -0.62987324204871
N        -3.10539862609787    6.34578513175353    0.00439405217258
H        -2.86811061835918    4.52184281515885   -1.03521690360633
N        -3.10720821619958    1.10349094509943    0.25634879343901
H        -2.86785286633872    2.92360119915847    1.30220646180288
H        -2.47547957555273    7.83830925019879    1.37988478433121
H        -2.47852458225306   -0.38537906017926   -1.12355190472759

