77
CSD_code = ZITLUJ | q = 0 | S = 0 | Stoichiometry = C44H24Cl4N4Zn | MND = 4
N        -7.36337501746052    5.09099585181732    2.14644250830760
N        -6.65364886906557    7.86869150491585    2.12658754517973
N        -3.87766516437185    7.15864560899516    2.02203690873265
N        -4.58955856573465    4.38136530455337    1.99526619102745
C        -5.11254078240605    3.12703598337651    2.06078225433837
C        -6.46938135679369    2.80587288635457    2.08059582399022
C        -7.50563896901969    3.73905315064759    2.09211955967939
C        -8.89955558186531    3.39778483634117    2.02789386620590
C        -9.58910882565919    4.56176516641791    2.06280596898331
C        -8.61820003100716    5.61693471321464    2.15022001337718
C        -8.93734900520905    6.97295252313939    2.21460893554973
C        -8.00294140982122    8.00815875762162    2.23104173636456
C        -8.33903980058458    9.39642128161377    2.38402372804696
C        -7.17524947581328   10.08643468077109    2.35137149097974
C        -6.12544334327006    9.12158122969773    2.17672868934769
C        -4.77156151449028    9.44363461930022    2.08777450924339
C        -3.73903459043238    8.51161447519262    1.98767838071525
C        -2.35554879443005    8.85557142964023    1.81084112182531
C        -1.66695221362918    7.69169739291835    1.75786304297381
C        -2.62790499579122    6.63393861557968    1.90392219393980
C        -2.30594233466447    5.27716721088486    1.90827029477500
C        -3.23644335343388    4.24101221446990    1.98098408964796
C        -2.88958809968158    2.84997699065348    2.07228631801359
C        -4.05248815545234    2.15953921587353    2.12260520071100
C        -6.83610611610640    1.37356068344374    2.09100205876958
C        -6.48514936622027    0.54347687688573    1.02994044146439
C        -6.82903942776008   -0.79541557190438    1.03467298493181
C        -7.52522973968570   -1.31531257776975    2.11457331795053
C        -7.88111082771501   -0.50710670137433    3.18284746331611
C        -7.53875148602961    0.83196218682365    3.16394761399228
Cl       -7.95385903319763   -2.99046355025767    2.12952903701151
C        -0.87575864837954    4.90995075620284    1.83152650572527
C         0.00968313792234    5.29311382736279    2.83511008938026
C         1.34680797113942    4.94874988450158    2.76905757110329
C         1.80879123229307    4.21951694229453    1.68469819658607
C         0.94476049208065    3.83088512342654    0.67303815690129
C        -0.39183423388734    4.17411377997794    0.75333307273992
Cl        3.48120151553900    3.78952381050477    1.59321054187890
C        -4.40417033607700   10.87580685708113    2.09692225183642
C        -3.60998098486468   11.39673003237418    3.11475411854238
C        -3.26582703386736   12.73546067359786    3.12963671001651
C        -3.71273758534887   13.56416492641105    2.11251030598094
C        -4.50136359888930   13.06509033410567    1.08777236299788
C        -4.84573928958438   11.72638743020412    1.08712695627686
Cl       -3.28169025310147   15.23874655174203    2.12194986443687
C       -10.36839093434951    7.33998990270491    2.27172730725109
C       -11.16417687000515    6.92663537588350    3.33665717444356
C       -12.50165580132304    7.27060305798167    3.39658855876116
C       -13.05502194297960    8.03060173867848    2.37811629654267
C       -12.28140076980667    8.44951541979074    1.30709173163555
C       -10.94331068751989    8.10580213924725    1.26113664795116
Cl      -14.72846114272279    8.46093785516627    2.44449578992806
Zn       -5.62116750057670    6.12499972006414    2.07247705166276
H        -9.28929271775658    2.40218639048923    1.94621746914714
H       -10.65124612770346    4.70074827207154    2.01501260430944
H        -9.33066203638191    9.78149257023132    2.51882027442845
H        -7.03236506159968   11.14412647421449    2.45447714054730
H        -1.97314888609076    9.85316066365376    1.71932709638049
H        -0.61320654186402    7.55444235086711    1.61456653136467
H        -1.89026938781067    2.46336765967647    2.11333624944630
H        -4.18703684869175    1.09955757466781    2.21255958410108
H        -5.94842432768344    0.95641382689295    0.18886184957210
H        -6.56056355888707   -1.43382413900541    0.20757805686681
H        -8.41971726505878   -0.92402283645520    4.01936150882400
H        -7.80754472643492    1.46624643393215    3.99545090159083
H        -0.35827354251684    5.85570191192883    3.68013331858388
H         2.02830604668634    5.24200949526217    3.55214560540796
H         1.31678607131138    3.26628711843990   -0.16749111699810
H        -1.06950142150494    3.87984291892938   -0.03415542676427
H        -3.27022545402180   10.74678984788472    3.90729352940020
H        -2.65560342946148   13.13637381525675    3.92372715155981
H        -4.84016498285521   13.71919003498361    0.29971889044037
H        -5.45429631893860   11.32937902255763    0.28837792626468
H       -10.72496149920723    6.34077249634925    4.13026501946293
H       -13.11304973036844    6.95353143712503    4.22683916256606
H       -12.72423739108056    9.03768679331797    0.51866508393001
H       -10.33635135096834    8.42326673759165    0.42641103759765

