95
CSD_code = ZITLIA | q = 0 | S = 0 | Stoichiometry = C44H46P4Ru | MND = 6
Ru        5.21661404181338    4.45222534254440    0.20940235799653
C         5.86809340592305    6.45879218047652   -0.48772734324649
H         5.29956652930436    6.86513552669140   -1.32365778718686
H         5.99762556686116    7.17079910372649    0.32781740334104
C         6.90289801644308    5.54882884135234   -0.75094630894377
H         7.80677175371773    5.58298859798384   -0.14438617271541
H         7.09273229216052    5.25720707809375   -1.78383949436414
P         4.25399036555828    2.76962500003204    1.23315760494315
C         4.92430823162909    2.35743801610526    2.89403239414622
H         4.20923397415350    1.78518698437882    3.49666042345038
H         5.83322501060012    1.76235913505967    2.74103491141288
C         5.28015425296304    3.70004445118780    3.51724316734425
H         5.86908818555428    3.58573461061568    4.43338197100695
H         4.36067920789715    4.25119064035815    3.74299798757847
P         6.22198957576867    4.68754015887734    2.25174005490118
C         2.46926427163704    3.09767605759945    1.59670614848541
H         1.92715957182936    2.17563365612078    1.83657146257999
H         2.43376256551576    3.77123233023097    2.46264287541774
C         1.91536170286902    3.80467589407006    0.36954442523240
H         0.89959194158153    4.17936877917963    0.52982187336208
H         1.91284719327645    3.10981031599852   -0.47637212441495
P         3.07749745352238    5.20174220502782   -0.03944607178451
C         4.20638452492636    1.15781335555335    0.32612194235640
H         5.00577626783528    0.54170033116528    0.75244402335338
H         3.25374506062279    0.64160029546086    0.49169777848254
C         4.45530528932849    1.42445583770355   -1.15507704060866
H         3.51143463273878    1.66502930910976   -1.65889375508818
H         4.88967877247322    0.54947052236184   -1.64923970344173
P         5.53980356023302    2.92328663581864   -1.43452008088976
C         2.35069779955959    6.46613840508443    1.07314727093607
C         3.14101665756978    6.99841713254427    2.07927071310707
H         4.17159708535472    6.66611673086627    2.15426265549516
C         2.62710311815758    7.93121650234366    2.96230133221828
H         3.25738572699130    8.34440214477283    3.73692664582011
C         1.30840500842138    8.33365715245099    2.84262271003090
H         0.89846275039698    9.06104503500724    3.52854580415582
C         0.51105250885034    7.80739489548743    1.83651091769271
H        -0.51738102265728    8.12658788676094    1.74193932328204
C         1.02659561621726    6.88042980459458    0.95161293058757
H         0.40802226690733    6.48717391616021    0.15512891172936
C         2.37368401190944    5.80777300136426   -1.61000162854485
C         2.46853950178314    7.17212563972691   -1.88438484532048
H         2.86475004575064    7.83686911325286   -1.12658149931332
C         2.05201257640304    7.67513972178263   -3.10152759208183
H         2.12603685027491    8.73524527416648   -3.29961091328550
C         1.53915015054269    6.82276897115086   -4.06635874779814
H         1.20669236614879    7.21584014449475   -5.01621972645139
C         1.46493670798968    5.46321578669021   -3.81265203166803
H         1.08065554940357    4.79227870357568   -4.56792044782799
C         1.89264779767605    4.95638612868327   -2.59994597345610
H         1.85732334778380    3.88923506144384   -2.43174849264731
C         5.12994621647803    3.21512092699785   -3.19964100808938
C         4.81228465850544    4.50384460460018   -3.60227244404431
H         4.80707016696612    5.29435614009328   -2.86275717015996
C         4.50022564334859    4.77329366807158   -4.92320198356748
H         4.26035896719516    5.78269304768541   -5.22518247677720
C         4.49062930177150    3.74604197494692   -5.84984546891168
H         4.24174618573556    3.94847126779245   -6.88167220160741
C         4.80763588950763    2.45448133462283   -5.45575464540445
H         4.80558137483496    1.65363246044153   -6.18191609971094
C         5.13488172469350    2.18827829868317   -4.14034543302050
H         5.40844398767274    1.18480943777072   -3.84384158093538
C         7.16335919676694    2.12210594681063   -1.72914475041352
C         8.03012143886435    2.62921533008121   -2.69424965013643
H         7.70836083985832    3.44625892542620   -3.32672090777352
C         9.28915131413108    2.08371648418317   -2.86209530968273
H         9.95044027084285    2.48329952974034   -3.61787843287649
C         9.70279971120923    1.02598312285554   -2.06946973688824
H        10.68475472984293    0.59650740994229   -2.20644967295524
C         8.85429825471860    0.52572889936145   -1.09468722972221
H         9.17316966162122   -0.29568472195952   -0.46781164353356
C         7.60058802669229    1.07853917695954   -0.91758796429252
H         6.95611372619789    0.70456201348377   -0.13419043571073
C         6.53292359284070    6.24347951712995    3.16987342096710
C         7.55401467927669    7.04945903746299    2.66663217937616
H         8.14604660744785    6.68609586783757    1.83558794755148
C         7.82538696427993    8.28173843084346    3.22708544862295
H         8.62258721051934    8.89294110455603    2.82843223951877
C         7.07598400227670    8.73229309247249    4.30234206769197
H         7.28616087779266    9.69471887970512    4.74565734026553
C         6.05665842696189    7.94269494980977    4.80646119272262
H         5.47351514459005    8.28828788105223    5.64913283968329
C         5.77827214536741    6.71032979414072    4.24163287053800
H         4.97315665583402    6.11506495447082    4.64752688801083
C         7.88301862047512    3.95093641728544    2.54950665644155
C         8.47932514627245    3.22032851424001    1.53357526124370
H         7.95685242328680    3.13073115946534    0.58741423593790
C         9.71259348236108    2.62357106980758    1.72459723981512
H        10.16801520016206    2.06241735609871    0.92088803455769
C        10.35632463656735    2.75314658818124    2.94295519280133
H        11.32059430763922    2.29115140321410    3.09968273663815
C         9.76582550296906    3.48215812211828    3.96463976605797
H        10.27085450283922    3.58532659513948    4.91489536271177
C         8.53611364031868    4.08193846554891    3.77211228393353
H         8.08674530228707    4.66358717554891    4.56665480175888

