93
CSD_code = ZITMOE | q = 0 | S = 0 | Stoichiometry = C51H32Cl4N4OZn | MND = 5
N        -3.26770090133301   14.81666390237134    9.69112657101772
N        -4.56540894340297   12.33754833067635    9.05957171943440
N        -2.54209081017254   10.90792226718314   10.50946907433335
N        -1.25843889978679   13.38973387200001   11.16694730527911
C        -0.79027244709631   14.64946483336807   11.35921064152407
C        -1.34452743809805   15.81803534711455   10.83675206035463
C        -2.48794788206882   15.87081793584232   10.03928162644097
C        -2.99844642143839   17.07587870255309    9.44158798324033
C        -4.10650296091715   16.72680515606332    8.74895023696165
C        -4.27330332196302   15.30856558811442    8.92410778194814
C        -5.31539335556290   14.56768900899564    8.36567193473314
C        -5.44539946515292   13.18130237283322    8.46007850409187
C        -6.55530768406647   12.43500774524111    7.93309543380380
C        -6.30940723555506   11.13094751524937    8.19994285022471
C        -5.05012146280237   11.08014915479005    8.89209020179950
C        -4.44412012920519    9.90160270830308    9.33218401813115
C        -3.26747032270088    9.84344396547067   10.07958910929788
C        -2.63603819523929    8.62119990464828   10.49785868087419
C        -1.53558352020405    8.97242585079869   11.20055262022051
C        -1.48089214574841   10.40940052249237   11.19340776018590
C        -0.49261626405634   11.15843943769117   11.83368543346328
C        -0.41413602085341   12.55153511388153   11.82110660442636
C         0.62515603680757   13.30996045590489   12.46451267679785
C         0.38500050078224   14.61227673192407   12.18730221060664
C        -0.66438484336668   17.09635988396289   11.13843695924389
C        -1.31173813693440   18.08343577480064   11.87628178900428
C        -0.68357011597579   19.28108926565013   12.16274473642588
C         0.60476433710089   19.50002378709494   11.70155355678318
C         1.26607616419349   18.53276235650958   10.96155783101867
C         0.63020615172680   17.33641735303022   10.68660986021182
Cl        1.39567261222976   20.99794951114388   12.05243008057678
C         0.56154181273777   10.42037593657992   12.56451871193868
C         1.43905620244490    9.58347533697987   11.88025839419827
C         2.42762705635568    8.88905613384488   12.55186699273029
C         2.54150397259337    9.02586035794362   13.92633386677164
C         1.68118583675588    9.85515624748132   14.62757515069932
C         0.70063564616239   10.54952105511501   13.94348430940600
Cl        3.77254553274322    8.15591009908008   14.77485024839688
C        -5.08826594675921    8.62609710397681    8.95453065378179
C        -5.25093850682424    8.29038797849604    7.61265089186362
C        -5.85112545201412    7.10016656103072    7.24678531987523
C        -6.30113662966458    6.23447118080316    8.23095261629342
C        -6.14981027816032    6.54864470205027    9.57210161029727
C        -5.54213433322664    7.73872672960983    9.92611980744089
Cl       -7.05877442887089    4.74586014640584    7.78098330379774
C        -6.35177949832239   15.30264027347674    7.61012343938476
C        -7.14166881983929   16.26159262693892    8.23857041343059
C        -8.11419885521917   16.94973040189851    7.53747177752420
C        -8.29781404053395   16.68301482608113    6.19001295780304
C        -7.52004159432051   15.73559044166155    5.54339549033662
C        -6.55484939864057   15.04931664336132    6.25618741900742
Cl       -9.51071483527489   17.54259386277140    5.30558838071515
Zn       -2.97231038022412   12.88224281730199   10.21465995016283
C        -4.28322043530134   11.10700422176179   13.39250820644458
C        -3.25964424636422   10.27189777016219   13.81480419235313
C        -3.46430228318270    8.90754627813168   13.92071566102383
C        -4.69955043937173    8.36530387119903   13.61326135523267
C        -5.72956188571363    9.19255971389758   13.19585612156459
C        -5.52057758150930   10.55470782889005   13.08122136028796
C        -4.07479361969413   12.59443291474847   13.27591005632977
O        -4.33833045500200   13.08783689616819   11.97039105086063
H        -2.55323727947915   18.04770711388235    9.52844912651301
H        -4.74164441949066   17.35756575082437    8.15824377954863
H        -7.40995921700446   12.85787826902527    7.44226933596669
H        -6.92535321826979   10.28368506607865    7.96995004926787
H        -2.98551271670306    7.63288123000599   10.27319358427314
H        -0.82739686591673    8.32597199372545   11.68045392748937
H         1.43130321565182   12.89649923775660   13.03838610602170
H         0.94328725906224   15.46875921506048   12.51096135535450
H        -2.31416991159640   17.90369561801861   12.23526842905811
H        -1.18709657098883   20.04140556738485   12.73912582871578
H         2.26722461082340   18.71688218363176   10.60436880719145
H         1.13652995063092   16.58118095480305   10.10417033649913
H         1.34999886845980    9.48744603205718   10.80850398873993
H         3.10778174965997    8.24637631441664   12.01510426800861
H         1.77987901579692    9.95583044241228   15.69715135959723
H         0.03275524445217   11.19947748418076   14.49001189174380
H        -4.89192066649677    8.96572401639940    6.85046645869905
H        -5.96982921101218    6.84268435678736    6.20592911380562
H        -6.50525930867405    5.86725235261078   10.32932203748940
H        -5.42321839762474    7.99425500394260   10.96791618596784
H        -6.99640545851101   16.46120057818401    9.28990786578724
H        -8.72733197821137   17.68819689412848    8.02997533016450
H        -7.66937085761158   15.54010044911711    4.49304461197168
H        -5.93988432661107   14.31536820401982    5.75718277102334
H        -2.29698062991722   10.69237400074547   14.06055885735012
H        -2.65721343703086    8.26829810812197   14.24505548599369
H        -4.86149498159509    7.30122633625431   13.70111861026344
H        -6.70136037168546    8.77916687742115   12.96736468521872
H        -6.33591985065394   11.19113974511256   12.76185680005173
H        -4.72724220627329   13.11787824390338   13.99261740804356
H        -3.03765975887923   12.85510157960630   13.49087872530866
H        -5.21380726920648   12.78121546683213   11.70420531648119

