77
CSD_code = ZITNOF | q = 0 | S = 0 | Stoichiometry = C44H24F4N4Zn | MND = 4
N        12.23970825687183   17.12810555272789   10.52726646896185
N        12.22063341641494   16.37945830578122   13.29437240786288
C        12.22799122797433   17.73058259473642   13.45047304779546
C        12.14796325700988   18.67576402894074   12.42798785164175
C        12.14190251771451   18.37347602841790   11.06708990581607
C        12.03421555986155   19.35099078626846   10.02000520724670
C        12.10002899641321   18.67724737044016    8.84803969790465
C        12.23503356152064   17.28525894030203    9.17626782360367
C        12.31567619466054   16.26258464053779    8.23112033634978
C        12.32185172001414   15.84039054255678   14.53982389524269
C        12.43278503142025   16.88837437579338   15.51614179206655
C        12.36546639267390   18.05981194865245   14.84188262136284
C        12.07151765760889   20.09941948388228   12.82187219878242
C        10.98808123160126   20.55963915483143   13.56599228422366
C        10.90012189490619   21.88726259873917   13.94056613145677
C        11.91441966566214   22.75109663606715   13.56912677132063
C        13.00531148797760   22.32274560505482   12.83466890543347
C        13.07546600193753   20.99350266098113   12.46086614954827
F        11.83773052966519   24.04780470482437   13.93406077783410
C        12.39528420219287   16.65178392526003    6.80663748434418
C        13.47430581944727   17.40319718763068    6.34776959404251
C        13.56993333952115   17.76410658119167    5.01687640674680
C        12.56841876598404   17.37077350202402    4.14771935197201
C        11.48088192004170   16.63061906151880    4.57475814836225
C        11.40231906028837   16.27186398020646    5.90758958430742
F        12.65417365653220   17.71999175002249    2.84720892591383
Zn       12.22909732638948   15.37102024986595   11.53726847424072
H        11.91065014379325   20.40576378292065   10.16808368793465
H        12.03937535450743   19.07509402236191    7.85410081432127
H        12.56085773322304   16.74201596935002   16.57051846318877
H        12.42768907533053   19.05393295842365   15.23905046473929
H        10.20459323960333   19.86993778466051   13.84162436662389
H        10.06264010617217   22.25649500325566   14.51105650491986
H        13.78008798249805   23.02364695680725   12.56715309691403
H        13.92357723673988   20.63813014965804   11.89530079166535
H        14.24875281301742   17.69500324491354    7.04104638516584
H        14.40408461950050   18.34032067808679    4.64895027978474
H        10.71624602453454   16.34527912822133    3.86963221513284
H        10.55750444165560   15.70026956439893    6.26126456193951
C        12.31570631056275   14.47941891527284   14.84337877777686
C        12.23505373930385   13.45674938844434   13.89824285389037
N        12.23969831060685   13.61389758614244   12.54724568941679
C        12.14189821617824   12.36852603251029   12.00742874845951
C        12.14797088092652   12.06622697666623   10.64652475687793
C        12.22800775716183   13.01140521915707    9.62403441578917
N        12.22064893638892   14.36253641853447    9.78013617488334
C        12.32182829810427   14.90160576344538    8.53467302880527
C        12.43281941233185   13.85362067579604    7.55836281442738
C        12.36545630171328   12.68217984645369    8.23262167640581
H        12.42766055588854   11.68806351423959    7.83545402841269
H        12.56089899971461   13.99998077431460    6.50399125140800
C        12.07151520164811   10.64256574703839   10.25263800610100
C        10.98808719037208   10.18235552747320    9.50849592814802
C        10.90013469595739    8.85473794680753    9.13390472981288
C        11.91443451091977    7.99090445723517    9.50533867127279
C        13.00530757757530    8.41924419355401   10.23983048457589
C        13.07545325113727    9.74847776771774   10.61365856197687
H        13.92357591769357   10.10385494558392   11.17920334549536
H        13.78007631376130    7.71834097378595   10.50735539622054
F        11.83773549611863    6.69419813521943    9.14041742112287
H        10.06264563447545    8.48550805362824    8.56342381426332
H        10.20460503308241   10.87206222106610    9.23286121033215
C        12.03421686253983   11.39100977333766   13.05451632531885
C        12.10000469546029   12.06476749291680   14.22647387155866
H        12.03935309548904   11.66692021851914   15.22041137330373
H        11.91066563735111   10.33623138224176   12.90643397409964
C        12.39529409548307   14.09022483989618   16.26785255858118
C        13.47431639887041   13.33882231690279   16.72672783151099
C        13.56994182962323   12.97790984965602   18.05762576731592
C        12.56841688454876   13.37122157255353   18.92677683943525
C        11.48088003241797   14.11137187935952   18.49973345945620
C        11.40232516175552   14.47013489622378   17.16689810822265
H        10.55752635896442   15.04176055996478   16.81323179506636
H        10.71626534912200   14.39675586393676   19.20487637285672
F        12.65418302799231   13.02202166774547   20.22729673845445
H        14.40407847706935   12.40166535921989   18.42555129480907
H        14.24873608879817   13.04695980713855   16.03343802742797

