56
CSD_code = ZITYEI | q = 0 | S = 0 | Stoichiometry = C25H22F3NbO3P2 | MND = 6
Nb       10.82499432668788   -0.00175255702792   14.17592005807065
P        10.51065873281097    2.31510833003201   11.64272478558928
P         9.64586489195087    2.94501423140451   14.37175511762435
F        10.60324224169848   -1.60952735373955   13.23900180731316
F        12.65582778391556    0.18709289820901   13.97081558949531
F         9.00547210264895    0.52388189746103   13.86628252357287
O        10.85613327220609    0.90698409958644   11.91233864332324
O        10.92675358013827    2.19644375166047   14.55650112822580
O        10.73117121441642   -0.50030985059595   15.79104427278772
C        10.04847832584147    2.52222267914248    9.89937856703377
C        10.16505378154090    1.40222898997085    9.08648870012953
H        10.50577283084949    0.47505359177093    9.52422319360467
C         9.84177277432874    1.48393552577231    7.74376784073416
H         9.93096093545963    0.61229876994501    7.11321088853951
C         9.40508729008922    2.68597023707626    7.21179558321977
H         9.15240690138128    2.75348260096851    6.16423495090274
C         9.29126949317301    3.80568282960869    8.02153310803381
H         8.95139052070018    4.74211756012009    7.60403924951305
C         9.61280969069943    3.72749743397957    9.36409097040406
H         9.52617771985166    4.60431782897498    9.98913063281015
C        11.86113453823071    3.46350602230528   12.04464180354575
C        13.09644128640326    2.90075896942908   12.34378269604533
H        13.20960359481728    1.82455099581518   12.32344423493617
C        14.16128271434722    3.71656531685046   12.68285378526243
H        15.11571831720854    3.27739099863227   12.93044774252040
C        13.99878908898229    5.09218679850314   12.70773659634257
H        14.82856894905549    5.72979265462899   12.97416697255471
C        12.77299437305032    5.65464149541762   12.38959586216995
H        12.64655565327348    6.72717409520120   12.40682693959124
C        11.70253218145106    4.84403519494724   12.05943981747689
H        10.74868040451423    5.29299787425659   11.82255112526106
C         9.05682032221970    2.92566815656382   12.61726808233627
H         8.75510243541305    3.92205414706354   12.29736148922639
H         8.22808508610697    2.22521305282953   12.47950566770817
C         8.33674033730509    2.47199702051657   15.53221270896175
C         7.01696096118741    2.86669338638711   15.35723395913981
H         6.73016354233642    3.44453539164283   14.48979624480119
C         6.06651071756261    2.49352774153254   16.29053170921386
H         5.03632705565226    2.78868654843618   16.15592793878246
C         6.43392470649026    1.73106097396978   17.38786532356445
H         5.68532182730320    1.43258333797752   18.10649319982038
C         7.75279876290998    1.34007278358106   17.55866028371942
H         8.03466812600447    0.73493448525811   18.40616223541329
C         8.71364522930807    1.71316811133995   16.63478597533304
H         9.74609303489816    1.39060038399079   16.74101092128693
C        10.01911555542386    4.68677653145602   14.72812906537045
C         9.09915403172649    5.70087747251042   14.49643382797192
H         8.12693679067189    5.46683952244853   14.08560549425187
C         9.42736389040668    7.01034794269387   14.79679510492455
H         8.71447742978873    7.80056891299206   14.61292555702120
C        10.66926669741622    7.30764258476624   15.33612130134179
H        10.92213588653291    8.33154755728950   15.56779968828646
C        11.58134394849040    6.29482191796295   15.58380323069468
H        12.54539848323486    6.52641803697122   16.01065095652984
C        11.25628123373410    4.98425922926320   15.28379169073393
H        11.95386439616082    4.17846086025198   15.46286315692423

