99
CSD_code = ZIVFOB | q = 0 | S = 0 | Stoichiometry = C37H55CoN2O4 | MND = 6
Co       12.77333415204316    6.87542844081546   16.68207101373135
N        12.99435598616791    5.03332639264741   16.80749230559868
N        14.31886439533990    7.20728881045170   17.67307651247685
O        11.22118431111415    6.64393989316097   15.67856413717084
O        13.75861224619247    6.93258544931861   15.10266211344586
O        11.62245678745297    7.19914997224535   18.19705181561972
O        12.26340786399961    8.73004501396387   16.83191205301012
C        11.10323499270336    5.78443780695916   14.73133885594968
C        11.90263331540759    4.60591738875714   14.68881019116343
C        11.82558327969627    3.72207606022973   13.59791576410302
H        12.47729402689920    2.86278321429916   13.61094153841094
C        10.97481495717180    3.96078353553521   12.55090311069150
C        10.10606683560221    5.06304255200324   12.66239923538450
H         9.39542451180748    5.21562702645403   11.86772861458885
C        10.10846428333962    5.94385525467634   13.71473684795546
C         9.09568770461844    7.07555199518692   13.83839518996706
C         8.34953683862748    6.90921100300716   15.17089422213304
H         7.61077928427503    7.69993535474211   15.28939051173229
H         9.04714755163774    6.95517991934475   16.00147875053138
H         7.83727214310627    5.94890884434595   15.19956358960031
C         9.80838574424165    8.43387264134265   13.81086790244038
H        10.29414896946463    8.58321907571320   12.84953999382971
H        10.56015666611524    8.49105442237743   14.59205148674680
H         9.08651063187315    9.23475896527782   13.96277917300998
C         8.05550668302974    7.06389653105142   12.71285762728057
H         7.34132225789548    7.86816517227995   12.87900158611925
H         7.50532718903482    6.12543563279063   12.69360926968729
H         8.52074268412478    7.22837530167035   11.74351221475659
C        10.90953312135060    3.09418985444377   11.30282897708173
C        11.91467394803304    1.93980676454367   11.34225344565913
H        11.70505177862738    1.26844176995526   12.17163357050329
H        12.93203252388331    2.31250150076150   11.43421316420063
H        11.84697097874989    1.36599541914140   10.41988858096062
C         9.50248816522985    2.49756426419305   11.16049756102544
H         8.75079703975992    3.27386741602382   11.04973165084102
H         9.25508827732483    1.90703155949642   12.04010729775410
H         9.45466508376427    1.85191459717892   10.28575122488109
C        11.23160025504630    3.96473975562301   10.07994341509135
H        11.20636242672461    3.36543365489145    9.17185079674378
H        12.22496006906838    4.39689352789638   10.18096864738379
H        10.51760172651633    4.77650840430715    9.97259097916952
C        12.66828437773631    4.25306010008447   15.83009852555251
H        12.92535800322032    3.19365341751231   15.91384347176485
C        13.42402449378405    4.42594126302929   18.05026582988002
H        13.58335858548964    3.35019426647445   17.89736938885164
H        12.60083076042306    4.55028079586093   18.76408167427197
C        14.69455738779142    5.02605615542796   18.67530798850814
C        14.94945808224722    4.33555175202158   20.01711482068399
H        15.06200173651075    3.26280335789148   19.87911855381707
H        14.12402101741410    4.50900873284309   20.70339690987779
H        15.86058685832619    4.71723739295718   20.47156119908672
C        15.88561777002023    4.80447260980838   17.74090432401151
H        15.67670162707319    5.20818903070858   16.75259335393110
H        16.09022327387400    3.74069945753373   17.64162486040273
H        16.77718187595098    5.28918398386066   18.13301377704660
C        14.47681248933565    6.53227992201218   18.93164654555624
H        13.57155062442016    6.66315513025349   19.53069044007018
H        15.33605275178714    6.93691430731033   19.48361448064065
C        15.27456916513201    7.95668599941631   17.24161030588729
H        16.07732316480579    8.21633092423544   17.93743725933705
C        15.44605694952388    8.39929041272457   15.90541038666317
C        14.71173654172651    7.76631308492578   14.86109427216674
C        15.13766753327414    8.02956699406285   13.51854216698094
C        16.11728708373646    8.96930647828904   13.31164577139351
H        16.40568457688726    9.19100943579296   12.29830481451038
C        16.78159566572916    9.66695266179137   14.33674417864677
C        16.45346018748123    9.33965053148590   15.62531853694705
H        16.95190783126671    9.79363438122551   16.46742227328317
C        14.49485911370517    7.27441608413675   12.36190796852335
C        14.68154496834555    5.76805572205523   12.58794016204445
H        15.74134494948388    5.51944433376022   12.61987867736696
H        14.21565754513419    5.20792713045784   11.77975758691738
H        14.21879765236252    5.46867470514485   13.52202185156049
C        13.00195046757995    7.61386481725530   12.31239332656538
H        12.53492922418132    7.37571336944370   13.26045087520669
H        12.50806046401056    7.03972429869168   11.53076912407435
H        12.86683972945297    8.67487091592566   12.11046126014069
C        15.10934851172366    7.62245147956075   11.00129996027631
H        14.95888049965195    8.67082195220298   10.75352163536541
H        14.62157446177263    7.02735145044637   10.23157764109898
H        16.17322992380847    7.39542344435902   10.97651087667658
C        17.82946930385485   10.70522543852502   13.96750070250711
C        18.44577269809264   11.37321183748362   15.19972312682693
H        18.96349952351163   10.64565056723646   15.82052618499163
H        17.68325232482026   11.87097702141982   15.79394542550343
H        19.17022070564831   12.12169222615754   14.88447382840736
C        17.17258733098036   11.79717990610082   13.11177191252888
H        17.90107910416592   12.56371417327957   12.85490686910287
H        16.35796840766194   12.26337496021551   13.66155451797828
H        16.76934481180131   11.38865490330411   12.18960474147293
C        18.95789646175826   10.03157224108461   13.17405588542730
H        19.72720252025666   10.75922121690422   12.92332120231806
H        18.58774161701197    9.59685415424366   12.24993779844334
H        19.41120478696569    9.23876155038317   13.76548429449771
C        11.52247628614087    8.38303445382023   17.78105248414628
C        10.54414820405158    9.34439035285114   18.39904476276507
H        10.96576349997347   10.34548403198142   18.40721793233900
H        10.28580095712501    9.02113320933735   19.40316908744738
H         9.64456184302316    9.35316531355589   17.78603724934236

