41
CSD_code = ZIVGOC | q = 0 | S = 0 | Stoichiometry = C16H16N6NiS2 | MND = 4
Ni        3.87277420752326    3.74612274485865    0.00141131042766
S         4.47385099067119    3.08402658121757    2.06860274896841
N         2.44448569003082    4.68224209431810    0.89139033232486
N         2.56353533960708    4.92744999553301    2.20972433527091
N         3.68828085790762    4.48745340096216    4.15725489714655
C        -0.87609666636548    5.96384698657249   -0.03176661054491
H        -0.74439385408623    5.74321926711117   -1.08131499726663
C        -2.04763134483177    6.54613299530352    0.40355684662051
H        -2.82916729641130    6.77829719253555   -0.30510125413070
C        -2.22373651141603    6.83335012347447    1.74882396374659
H        -3.14154555247466    7.28827529658690    2.09095895531726
C        -1.21541940035786    6.53347352569759    2.64996848211158
H        -1.34875971457059    6.75572485387825    3.69890329347149
C        -0.03777744498607    5.95192909541057    2.22107405400438
H         0.74604289040270    5.72401047999737    2.92380512844093
C         0.15532968662436    5.65479222184276    0.86776877582224
C         1.33961352673169    5.04073380807125    0.30688247632876
H         1.28363143310724    4.86512573070409   -0.76056861206455
C         3.48802426316657    4.26736702162449    2.84296091426510
H         3.03805107968615    5.06143694583253    4.66461679211624
H         4.29291393361546    3.86373589858328    4.66093046542497
S         3.27585791677985    4.41625162913263   -2.06449954272786
N         5.29950678016699    2.80794224360297   -0.88931166703874
N         5.18100012949964    2.56750909615522   -2.20866441565798
N         4.05975453280587    3.01611140832212   -4.15605897131107
C         8.61728670341090    1.51692407068935    0.03101123422781
H         8.48594425454188    1.73538795631111    1.08105794089719
C         9.78844546069855    0.93501926346513   -0.40582177235527
H        10.57002104937908    0.70095511787470    0.30216583921472
C         9.96416854715430    0.65070222859165   -1.75175766801781
H        10.88176617812853    0.19626886550542   -2.09511063887764
C         8.95571609224053    0.95282618222634   -2.65199733891935
H         9.08865593252789    0.73266530101001   -3.70142612135062
C         7.77848384305348    1.53409999296506   -2.22160247896462
H         6.99458504142019    1.76382869488305   -2.92365077112083
C         7.58592418063081    1.82873834701629   -0.86766144324277
C         6.40274674753116    2.44358367162657   -0.30530525806727
H         6.45878136703346    2.61547184183471    0.76271735529453
C         4.25921548699223    3.23225132901812   -2.84093642448847
H         4.70934147354510    2.44182603617197   -4.66392786649847
H         3.45849216888588    3.64359046348229   -4.65910228879808

