57
CSD_code = ZIVJUL | q = 0 | S = 0 | Stoichiometry = C23H29CoINP2 | MND = 6
I         7.57574920526126    0.45449882191502    4.23602200705808
Co        7.69090805733260    1.24394602807675    6.68064953690131
P         6.48647921422766    2.97071333440413    6.11315400503469
P         8.91691082123242   -0.50452583843718    7.11999941422976
N         7.76412300683342    1.81008038030992    8.45562066755617
C         6.83604405749890    1.39006305427459    9.25456757437819
H         6.80439189941709    1.67097257357204   10.30402827996516
C         5.85801269655452    0.53783413539906    8.67527739565363
C         4.78350384406188   -0.01040044373759    9.38490829504635
H         4.66842141858347    0.21066652102911   10.43823996640402
C         3.88930098019423   -0.82356948556896    8.72898472460157
H         3.05262989357900   -1.25696114135573    9.25807599648880
C         4.07046281713149   -1.08486663217658    7.37414440484817
H         3.36735355345653   -1.72370357558632    6.85732809597448
C         5.13491903373836   -0.54164742876421    6.67550327673342
H         5.22685324519036   -0.77885389260734    5.62462003924288
C         6.06956211706069    0.28934020835679    7.29525544903460
C         8.80873769788256    2.64572409317893    8.81003301715428
C         9.05861411943887    3.18530498469529   10.05486301505142
H         8.41641349242948    2.98306013109924   10.89988256625913
C        10.17151607807022    4.01545654642228   10.22625699743991
H        10.36017275494750    4.43426256933585   11.20449064794580
C        11.01541412726780    4.30161795602489    9.18422900963355
H        11.87022485169171    4.94536031604140    9.33736032777302
C        10.78825829731026    3.76667832273863    7.89984633797452
C        11.61004236325210    4.01614982836852    6.78409597424944
H        12.47520799216425    4.65473857298784    6.89498683251004
C        11.30078831844153    3.44712441563457    5.57869971998615
H        11.92808534048045    3.63465499761194    4.71758328286206
C        10.17913436649232    2.61607913655884    5.42199282962344
H        10.00114483536435    2.20406842835014    4.43845995009982
C         9.33317226265004    2.33141180635298    6.47403182910592
C         9.66473130722013    2.92649537776565    7.71793064629193
C         6.07329615696476    4.15220802432024    7.45347297754681
H         5.47853184429972    4.97076241135030    7.04791212209722
H         6.98948828007413    4.55251374154661    7.88760920853112
H         5.50237787425677    3.64307653498002    8.22986825527559
C         7.16423139990623    4.12258425297267    4.86637989853055
H         7.35458900645773    3.58332833405684    3.93967948051890
H         8.10122357374634    4.54203162444588    5.23118805460451
H         6.44603217959401    4.92273849248787    4.68412465359429
C         4.81911735063559    2.66718625547993    5.42590514064882
H         4.21956756118488    2.12004731760356    6.15267914134751
H         4.90372826533505    2.07232975681594    4.51779421518364
H         4.34223688163425    3.62046863128905    5.19598289826071
C         8.18794881866156   -2.15752007272552    6.83559514294963
H         8.91555297175375   -2.92554325961586    7.09973130731707
H         7.91514511754457   -2.25784281308168    5.78623168904620
H         7.29287998010716   -2.27104796779583    7.44628464862531
C         9.47631093573647   -0.69181424551918    8.85640984196718
H         8.61173334111342   -0.76972730506228    9.51548107501251
H        10.07087602360662    0.17412634710671    9.14756774331695
H        10.08184687073917   -1.59340108385785    8.94953902685792
C        10.51307020665397   -0.68170324727793    6.24734852451795
H        11.14925816652822    0.17231401478106    6.47721149386912
H        10.33790717897028   -0.71379121850470    5.17308171678388
H        11.00006594804143   -1.60349862806413    6.56709963048496

