87
CSD_code = ZIVKAS | q = 1 | S = 0 | Stoichiometry = C38H38N4O6Y(1+) | MND = 8
Y         6.27067643019636    5.99863391015833    4.36040736320241
O         4.49486582663607    6.30787653085175    3.08330033926440
O         5.64925142559039    8.15593038940157    4.69467282439756
O         7.20761445695554    7.41524218314224    2.57210198392138
O         8.22883142490934    6.98646805999710    4.46973755822660
O         6.76896673348786    4.66278801949833    2.64316126020436
O         7.65358912147352    4.25824969228500    4.59964521873134
N         4.66698354809222    4.24571253843704    4.97848560748509
N         6.20661120703407    6.33158731082799    6.73958146568126
N         6.07349034266096   10.01327676267415    2.81452044526006
H         6.08675255550255    9.00212980027719    3.01723835777697
N         4.82306656626724    7.58885487821371    0.79851154647689
H         5.23854732685859    7.33265674547806    1.70543238402224
C         5.08499222233568    3.40986381611302    6.08762218093307
H         6.06500395359152    2.99024839991859    5.83062445854987
H         4.37813631859017    2.57678641663921    6.22791481280543
C         5.21024935227492    4.17840304247377    7.40371928278827
H         5.30021542156729    3.44300920488734    8.20537150939156
H         4.30165409793365    4.76173678883156    7.57801391412878
C         6.43172745133951    5.10145575274670    7.47163613123479
H         6.65425865204001    5.31827385641288    8.52839354659773
H         7.29531194041119    4.59677750430112    7.02496455442584
C         6.21831787821150    7.40546704793426    7.43119946941891
H         6.39820456397008    7.34048287058494    8.51408273764035
C         6.05903435076061    8.75683002875416    6.95622360779380
C         6.13375888508782    9.78971553530758    7.87384822612074
H         6.25525296483789    9.54813769655176    8.92145983008631
C         6.06544134548158   11.14307792232500    7.51245432201600
C         5.98885905455054   11.44985178054161    6.17740893474096
H         5.99059823801587   12.48374316571232    5.86230985052644
C         5.93222621843037   10.44871682441611    5.18181962293816
C         5.86897605564661    9.05006564742278    5.55824474504768
C         6.02558141316497   10.82555076869987    3.83638799751008
H         6.10774703315119   11.88814224569663    3.61959459314783
C         6.12060416294411   12.19831738245613    8.57163187206552
H         7.06039013131984   12.13810319403760    9.11835834712629
H         5.31177843763152   12.05895392840659    9.28679475681785
H         6.03459069709933   13.19049832402984    8.13855332100818
C         6.39224537611071   10.43272710663526    1.47568997960221
H         7.37411983432725   10.02571772351442    1.21057496018820
H         6.45814878605903   11.52445938325523    1.46290609196647
C         5.36066353895142    9.98200503190390    0.43526632166037
H         5.47786826246159   10.62724956515746   -0.43578681866047
H         4.35362893743735   10.13124911150832    0.82762889353780
C         5.51951512917869    8.52751280429608   -0.03608708174857
H         5.13445511848595    8.44058029027233   -1.05616019199015
H         6.57866654433814    8.25954184152396   -0.03636317451940
C         3.77803256330307    6.90548929643272    0.42343836865618
H         3.38457526338534    7.10689574348496   -0.57043782592724
C         3.15347780554071    5.90501603249947    1.18168974836141
C         2.08051066059345    5.18014355218896    0.61972611388404
H         1.71231281190356    5.48081908668278   -0.35101982535913
C         1.51619320282159    4.10530138664641    1.26109921037745
C         2.07078485637754    3.70348073021994    2.48393914597637
H         1.66716729373136    2.81987669710238    2.96034168835137
C         3.11315423317014    4.37572976103779    3.09973938023542
C         3.65042946662617    5.56902960620690    2.50005381178488
C         3.67169179013798    3.81340243040772    4.30317565946426
H         3.18217636959396    2.87938659670824    4.61516551036067
C         0.36977656779738    3.34099997254146    0.67779956463224
H         0.06490687090495    3.76210921991143   -0.27564455039094
H        -0.48205991027171    3.36254772404638    1.35555632615083
H         0.64568508951004    2.29889281676013    0.52573006604167
C         8.25290379805071    7.41125375955783    3.28458207674445
C         9.51649954597806    7.96474613551228    2.72945897511777
C        10.56433773142463    8.29570349073442    3.58287551877731
H        10.43927445799209    8.13490981760678    4.64283109690079
C        11.73618838730313    8.81638841046735    3.06607144726754
H        12.54984337711746    9.07321648521221    3.72735939903982
C        11.87058448679341    9.00243036223981    1.69894306801613
H        12.78843416917512    9.40452469602596    1.29729926878930
C        10.83318770250661    8.66349821914442    0.84420087685718
H        10.94613536732783    8.79661705856531   -0.22149891329684
C         9.65795814057815    8.14734484236560    1.35703210827800
H         8.84819449594272    7.85257273873283    0.70530676579932
C         7.61164148647161    4.04490820581868    3.35406668371258
C         8.53371855169719    3.06353970696347    2.73663030333522
C         8.44774133161696    2.78789262885488    1.37491494553932
H         7.69794916262509    3.29881894371628    0.78958627263361
C         9.31239325352774    1.87495370390416    0.80145083933386
H         9.24735878214959    1.65876707287079   -0.25454651998127
C        10.26439616941474    1.23635307425579    1.58136122514985
H        10.93919028909803    0.52386773175719    1.13078353176980
C        10.35393732919501    1.51049645698893    2.93730819528020
H        11.09804116594136    1.01247734615201    3.54059495933882
C         9.49161083160867    2.42202495958493    3.51676551185686
H         9.54609571789285    2.65511467562878    4.56937201166296

