66
CSD_code = ZIVNEZ | q = 0 | S = 0 | Stoichiometry = C23H38FeNP3 | MND = 6
Fe        7.84346360987065    3.75367761358546   11.50031785638075
P         9.15838829961630    4.87445717698812   12.77740034920289
P         6.52904859374170    3.05512176772317   13.11401171843068
P         6.94125567819751    2.47937319105888   10.00960280276148
N         8.82372351038236    4.43848004412339   10.04515124078513
C         8.33261332101848    5.56186795002632    9.29809491421320
H         8.04290223145944    5.24116917185721    8.28545548126485
H         9.11481383603235    6.32555173981422    9.17889327643733
C         7.14678666448238    6.09897524104115   10.03798241169358
C         6.53932132095079    7.27107273376027    9.62066820345318
H         6.91920900759367    7.79057873441590    8.74840803992554
C         5.45791284306898    7.77783193654472   10.31652136487589
H         4.97462193613950    8.69073775579928    9.99725967579955
C         5.02026795807287    7.09475631320570   11.43505284725378
H         4.18494902217259    7.47711884674258   12.00882446872686
C         5.64634224843561    5.92410391111692   11.82973583179702
H         5.26714251842289    5.44693545324794   12.71988084328813
C         6.72247327294094    5.35602747914860   11.14938925714310
C         9.92333009035006    3.86369889360077    9.71500740270610
H        10.53386015215955    4.21348346067326    8.88335283507800
C        10.28257979437930    2.73000709254444   10.50365380141453
C        11.44372363232855    1.98673653933263   10.28900162106270
H        12.12372635532312    2.27025617098698    9.49482481028723
C        11.70984198941294    0.89998529799474   11.09158157510354
H        12.60230117820146    0.30832322974223   10.94254638572234
C        10.81225397227156    0.57876654485977   12.10131107366128
H        11.01502447517704   -0.27030833589239   12.74220453645610
C         9.66654889695637    1.32894252711356   12.30214633340624
H         9.01656804111840    1.03810381858653   13.10956210202265
C         9.33566338193410    2.43328045157456   11.51623098075139
C        10.70596552610721    5.58451954108913   12.07863460434547
H        11.25831692096478    6.07389920555717   12.88191996102329
H        10.46267021078068    6.31951410350816   11.31305534751343
H        11.32307591482819    4.80018153315242   11.64532885232134
C         8.55990773955696    6.43899780896064   13.54145356917609
H         7.67745927174559    6.26302670991828   14.14693963276970
H         8.27906720858813    7.10527429000262   12.72638733551234
H         9.33962144805111    6.90202140765270   14.14685670182641
C         9.93861567875780    4.01678843655920   14.20819141111737
H        10.76550210481459    3.42154253773579   13.82361580390383
H         9.23050370160050    3.33854395779070   14.67607476280525
H        10.30935282527981    4.73405201019873   14.94053583397031
C         6.34325428348243    3.99007347494305   14.70190896918402
H         5.69414155113766    3.42869172050554   15.37507777501813
H         5.90961171101421    4.97066586900196   14.53145114578325
H         7.31496378393924    4.11870243356460   15.17230147412762
C         6.70861164767486    1.41250179690691   13.95573616366214
H         5.80225988347844    1.19534485978615   14.52193865967651
H         7.55102984860337    1.44644096660384   14.64412575713041
H         6.87584147234212    0.62143149290201   13.23114476974325
C         4.73168090314646    2.86463519544832   12.71898312446958
H         4.56498507859869    1.91765026876915   12.21074227866610
H         4.40540922088389    3.67040989474920   12.06998853134729
H         4.14605839261975    2.87815191168076   13.63842031881819
C         7.87088926497082    2.10695658934174    8.46009696448642
H         8.81999157366007    1.63480932712836    8.70613126117089
H         8.05921988386509    3.01077068424932    7.88508833405104
H         7.27684930144431    1.42323070367797    7.85288769630964
C         5.36923133702426    3.01239263123638    9.21226875579039
H         5.51873587010684    4.02111038808735    8.82920923348478
H         4.57075594616166    3.04897792516790    9.94745457616424
H         5.09042118382299    2.34214492383174    8.39907098825427
C         6.56085546540798    0.72378813612232   10.40631428968176
H         6.16304425788396    0.21267987551842    9.52949861517614
H         5.84448550754146    0.64985151759561   11.21814332538826
H         7.49345624790345    0.25171311974146   10.71344913502431

