31
CSD_code = ZIVZUB | q = 0 | S = 0 | Stoichiometry = C8H10Cl2N6O4Pd | MND = 4
Pd        3.94895211552860    0.00022429666443   -0.00001971530236
Cl        1.98680127044926    1.16178899216879    0.20560162274962
O         5.37870661263080    2.33685555579178    0.50741228087888
O         6.09823717131435    3.25971740821422    2.31987156974833
N         4.31808831183625    0.28695379554797    1.87810707362642
N         4.34633760199507   -0.06292812356624    4.03065522227172
H         4.18491408647803   -0.50474506941284    4.92290193636003
N         5.52302850524777    2.37589963607944    1.71691303999153
C         3.93779804162184   -0.53905055223197    2.82473088254888
C         5.00848156742276    1.10642269111172    3.83712896671771
H         5.43613852590396    1.69343204044215    4.62244725981210
C         4.98330452805418    1.31439233403998    2.47621292126378
C         3.18588932916759   -1.78432539210899    2.56840645765035
H         2.26911538856995   -1.54547016276797    2.01787667409353
H         2.94117950333966   -2.30367480365431    3.49033178220345
H         3.77827695381592   -2.43701435584819    1.91828655732227
Cl        5.91097295720725   -1.16167777262034   -0.20551714422077
O         2.51876592675881   -2.33657746010895   -0.50738276765898
O         1.79894268104263   -3.25918147254894   -2.31985960645970
N         3.58006119864682   -0.28698650564438   -1.87811980899332
N         3.55169528141999    0.06297983057361   -4.03064834341008
H         3.71327851508953    0.50470859711965   -4.92291008997440
N         2.37430163496383   -2.37548216679702   -1.71688046085654
C         3.96054897859484    0.53890426081429   -2.82475605671904
C         2.88914381391262   -1.10613505973496   -3.83709155253267
H         2.46113811898093   -1.69293240976452   -4.62238058921246
C         2.91438357410542   -1.31415674840796   -2.47618161500113
C         4.71309437871949    1.78381501429353   -2.56845817157311
H         5.63083062090620    1.54429716552912   -2.01980026574340
H         4.95629427164031    2.30405516111224   -3.49029792544036
H         4.12189853463529    2.43589127571467   -1.91658013414034

