48
CSD_code = ZIWBIT | q = 0 | S = 0 | Stoichiometry = C19H24Cl2N2Ru | MND = 9
Ru        9.75200450726733    6.36870686669845    7.11036053362065
Cl       11.05060166540970    6.88630154946104    5.22310755808894
Cl        9.51474118753075    4.29155368941516    6.03990651944945
N         6.85527329002807    6.49283472249294    6.25677818594009
N         7.91917860663340    8.29897541640748    5.67186994705266
C         8.08130774148258    7.06524128277439    6.20536360816241
C         5.90895065020716    7.35238050552103    5.74430070996580
C         6.59306432224267    8.51362786029997    5.36799119428894
C         4.53368720393057    7.25737672154874    5.59460783273488
H         3.99742185574766    6.36994042419395    5.89180150308943
C         3.85246568642647    8.33346266225395    5.05028091366618
C         4.54117614193818    9.50237381841858    4.67121165630612
C         5.91309525825218    9.59850280926184    4.83554644706916
H         6.43158542098353   10.50089598270197    4.55211159154429
C         6.51207395469283    5.17136601325439    6.73011956472247
H         5.64483010681355    5.26650520962859    7.39229827636657
H         7.36147643340194    4.77642114266446    7.29178779852360
C         6.20651532820650    4.23116082890609    5.56902520881591
H         7.11359367288609    4.07822790942111    4.99148930894181
H         5.43379175410995    4.64102814781582    4.92384901789030
H         5.87611016279794    3.27146432431953    5.95503597727053
C         8.93703692804807    9.28681451596479    5.39593699551614
H         9.84721599995579    8.99928870154264    5.92678443876262
H         8.58011747809419   10.25139555104588    5.77236464003101
C         9.23824626133542    9.36552464318331    3.90314432439387
H         8.33452480857809    9.55235766575161    3.32885965438909
H         9.68008805906819    8.42641100604576    3.58296310067855
H         9.95024663686984   10.16388106995903    3.71672080375043
C         2.36818207704108    8.24824745848987    4.86383621049592
H         2.10755235952844    8.35821460648121    3.81195163918848
H         1.86307874336164    9.04142025518100    5.41359972038728
H         1.99059849020532    7.29111330319005    5.21319617660741
C         3.78639861723609   10.65581176446961    4.08383082421355
H         3.27694629120384   10.35435539149411    3.16952165154968
H         4.45902098823592   11.47607828209815    3.84836693114091
H         3.02995596868144   11.01723992530684    4.77940319080066
C         8.93972569792215    6.63298523679253    9.21983017222453
H         7.92716059827626    6.68816903875667    9.60478525630520
C         9.61958965386830    7.82869131062373    8.84671750292524
H         9.11944802782854    8.78566054669666    8.95145306156813
C        10.95872594839077    7.77147958541272    8.43976284812142
H        11.49875752382839    8.68152769866258    8.20544226865925
C        11.64597408288220    6.52672746548654    8.42826658580367
H        12.69781151318362    6.50204720278029    8.16831179329624
C        10.98204368506453    5.35868643830716    8.78968719750711
H        11.50942618950451    4.41232226227664    8.81473811056341
C         9.61294475458506    5.40603808439005    9.17102560263652
H         9.11883766623472    4.49806310215127    9.49725594498103

