59
CSD_code = ZIWCUG | q = 1 | S = 0 | Stoichiometry = C25H26ClN4O2Ru(1+) | MND = 9
Ru        0.24717672561553   11.59229419104842    6.55084159731445
Cl       -0.20101265731826   10.84988234089481    8.73938844337856
N         0.75818511956932   14.50021778333236    7.49477705034544
N        -1.22934032344259   13.82771772561212    7.96375480341835
N         2.04118163557565   11.65979126443953    7.18223438953974
C         2.08602323318403   14.54426397559591    7.03103564866357
C         0.64802246990586    9.75332321291408    5.17847076910837
C        -0.60638230570659    9.58765471263099    5.77370253059293
H        -0.83450268953868    8.67766044495170    6.31396830017824
C        -0.08799514378335   13.45181708901105    7.33879324714716
C        -1.10183227842827   15.11112735533269    8.49397399463504
C         4.68890750893154   14.55481412153898    6.14729438637526
C        -1.62200344986009   10.56497500512009    5.62990060633480
H        -2.61137839312280   10.35641280570432    6.02405371275078
C         2.36643462622934   14.21587053608257    5.70616619227584
H         1.55519610770778   13.98516183323031    5.03387917377254
O         6.26090249869374   14.11420898576312    4.56708665018829
O         6.92065910138764   14.82390841917135    6.48802240256558
C         0.17209645543951   15.51820749986585    8.19557166291800
H         0.67003369245349   16.44296519097031    8.39666468174251
C        -0.12903209595189   11.90422935803721    4.26390880295460
H         0.02179960614290   12.73931530430268    3.58836832177520
N         6.06792960693703   14.50228387839434    5.69564310051017
C        -2.19150425298983   15.70337467947027    9.17561811420630
H        -2.07281678790818   16.70003861224659    9.56674000185756
C        -1.40642613026079   11.72608551880866    4.86931634247219
C         0.87655199154678   10.94394437316633    4.43044003668014
H         1.81866984248367   11.06048353620310    3.90331443696890
C         3.10633241718948   14.92193351886554    7.90027960196656
H         2.87397397442088   15.18752522319976    8.91962594808293
C         3.08251832662688   11.43792358904005    7.62694351487468
C         3.67303836563689   14.21691407177639    5.26241251995811
H         3.92553689899575   13.96868835301014    4.24279835660155
C         4.41429772002434   14.92577554067705    7.45704665544788
H         5.22905621738071   15.20489385243789    8.10817040721319
C        -2.38676221977299   13.11773253036326    8.13775690823126
H        -2.38786242452822   12.10619664947408    7.76201578964077
C         1.70816865170648    8.68024068992181    5.23506064381641
H         2.67577349595142    9.14769645696491    5.01428454033770
C        -3.33962997193544   14.99406375751502    9.31889980474573
H        -4.18742307964982   15.41254252919245    9.83559317708225
C        -3.42788612376200   13.67385671383928    8.79763914494791
H        -4.33360163641710   13.10832883605445    8.93980907747761
C         1.79210643395836    8.01935927606768    6.61279081468821
H         1.77868843317183    8.76860274585626    7.40482765487186
H         2.71267039581850    7.44745586966962    6.69118260556231
H         0.96311527719422    7.33471828812918    6.77210587874249
C         4.37958608685688   11.19586049211823    8.17128362046463
H         4.37241530485332   10.25718681892866    8.72663113469295
H         4.65305299732516   12.00463685673305    8.84905286723573
H         5.11784718226001   11.13084978631750    7.37196169512002
C        -2.51915019997595   12.68486509097109    4.56791627855898
H        -2.91572945744844   12.46561860645054    3.57519405020637
H        -2.16710488431168   13.71499854597263    4.56354092140939
H        -3.33206657301049   12.59260881409871    5.28414486990126
C         1.41723503208764    7.63927033900419    4.14711035660889
H         2.18468044171990    6.87050840419429    4.15979255038209
H         1.40655150356675    8.09952065802979    3.16137051234291
H         0.45302770057457    7.16589734125545    4.31862869812357

