35
CSD_code = ZIWCAJ | q = 0 | S = 0 | Stoichiometry = C12H16O6W | MND = 10
W         6.35689382777608    1.84705340908031    1.92973981113286
O         4.77289794625740    2.10260000472684    0.23899644017573
O         3.08848617066075    3.25373805113349    1.20306027195455
O         5.81533091784692    4.07477161947031    2.20027499168456
O         7.44234426294059    4.58666221742987    3.68645084934634
O         7.84596508816290    1.53331311713839    4.64161158540781
O         7.54518247013091   -0.91560156954768    1.13530317358849
C         4.03019467489340    2.30987738828371    1.20707237391751
C         4.20310659526891    1.55700627538181    2.43594294216388
C         4.77404077643964    0.25705225953270    2.27838612226783
C         3.08928655039070    4.12888931857310    0.08337173797482
C         3.55617108644187    2.02547879208412    3.70911851091849
C         7.01607568948440    4.03776882763511    2.53760457152289
C         8.02794620594539    3.39982567650727    1.71518652146431
C         7.57479573205161    3.00048764696226    0.43857832778886
C         6.43092874199846    5.01574002623153    4.58756611546487
C         9.46402035633551    3.35014623026600    2.15845704813285
C         7.27847950517674    1.61404130843658    3.64102489225430
C         7.12275239339349    0.11694685505917    1.40980137459498
H         4.75778828024183   -0.38099664832011    3.15967863794666
H         4.54494201235759   -0.27789990587093    1.35366388118803
H         3.05063649458102    3.55939558016715   -0.84776979852487
H         2.20638177388999    4.75430642708900    0.18861930168280
H         3.99381061643570    4.74198727068679    0.09379702669163
H         3.61143804469386    3.11045954590022    3.79027788318977
H         2.50218987401206    1.74270076830374    3.72163666932544
H         4.04680241534184    1.56943064947072    4.56877660836745
H         6.83685468252787    3.62436054913675   -0.06672484015668
H         8.29919022693051    2.53942481444742   -0.22393204875167
H         5.90457998285115    4.15207047439098    5.00256254255677
H         6.94556098985229    5.55715609146311    5.37719839397811
H         5.71528545924380    5.66594593280080    4.07911047765491
H         9.54030378783152    3.23721425038022    3.23808888418113
H         9.96376135279099    4.27974740368731    1.88067197379250
H         9.97487501482265    2.52039934188157    1.67279674512281

