55
CSD_code = ZIWCIU | q = 1 | S = 0 | Stoichiometry = C26H18AgN6O4(1+) | MND = 2
Ag        3.75232196483871    4.02132061930585    6.07961652676969
N         0.92478569554463    5.39388297829476    6.77678519156071
O         7.37363056338886    7.35596529817305    2.26002607477461
N         5.23033788241778    1.37649151754969    6.74454774476821
N         6.73159822791808    8.25197915235101    2.76075314393552
N         2.12422203235351    6.64325698894644    5.51495554829924
C         2.10544233479239    5.42649708646878    6.11837126725502
C         3.73004752157047    8.37304962853341    4.95046127095871
H         3.25268397449948    9.04522766590772    5.64644795280478
N         0.47270715005744    0.49247498003354    9.54920541927831
N         6.50199484377333    2.43727042072976    5.38444340776801
C         7.11224227133928    1.20971547033376    5.62949823677292
C         6.27721737468662    0.54148544592608    6.49259637246081
H         6.37805906011139   -0.42186109797268    6.94603574022508
C         5.49298311967692    7.87452495405085    3.41565399569659
C         3.22279953781424    7.09053521738167    4.76002005092973
C         3.43953846459102   -0.12668436665411    7.40266601995276
H         3.81648393677675   -0.87780364074723    6.72599946775267
O        -0.09488985871463    1.51106934402959    9.88108345010159
O         7.03878221297100    9.41776799255418    2.78134001188039
C         4.86712786195875    8.76947277148035    4.27229609210570
H         5.28955972817592    9.75297838720642    4.41135457172423
C         2.26462834442814   -0.34422577964185    8.09801308996817
H         1.71043304149417   -1.26408168551086    7.98956623256313
C        -1.04881691765757    6.72871569666714    7.21473129707785
H        -1.59236472259809    7.64603780620551    7.06053317785037
C         0.42279679716774    4.38245933436779    7.54653677186525
H         1.03981986960832    3.49788278009977    7.62183278344160
C         0.21339884590058    6.57615687678122    6.59391399479989
C         7.07470004886229    3.35441888788598    4.54840968859428
H         6.53370187727334    4.28251634356527    4.42240564457681
C         5.33947871230473    2.54834687618569    6.06543636706574
C         4.96829237870721    6.61033754683548    3.18156029245320
H         5.45553882419171    5.95989622293093    2.47074127501613
C         4.11106858635729    1.08437587832376    7.54427852934993
C         8.34459786995535    0.90909714302471    5.00361488836837
H         8.80691912176895   -0.04318205435448    5.20363152917978
C         3.64866093054803    2.05179566624590    8.44006274965461
H         4.23885818380942    2.93965010755690    8.63186814323858
C         8.90065962334257    1.82922993444377    4.17304446696032
H         9.83747521734699    1.63025877276321    3.67952744424937
C         3.82504192399395    6.21858842312499    3.85008185558712
H         3.36555985533005    5.26185680135023    3.62967394159149
C        -1.52929047349249    5.71825151308931    7.98584253166573
H        -2.48448928686104    5.80695814852284    8.47623832403414
C         1.00179587298913    7.36595093269781    5.79175514341916
H         0.82249945088261    8.34201976218657    5.39324281699503
C         8.25102373829801    3.07390084558978    3.94371435977684
H         8.70084576889923    3.79823670086265    3.28533494838795
C         1.76864296025263    0.65700145395664    8.92154311996269
C         2.46888068568422    1.83880364969749    9.12703086258790
H         2.08458742394573    2.56959279669287    9.82269732682589
C        -0.77611786272851    4.52313406780418    8.15491923153580
H        -1.15710722709476    3.72618714555054    8.77235269639813
O         0.04320463655546   -0.62728540938457    9.66340691718144

