55
CSD_code = ZIWCOA | q = 1 | S = 0 | Stoichiometry = C26H18AuN6O4(1+) | MND = 2
Au        3.54002882968063   10.99530762303452    6.12095175138454
N         2.09209146773992    8.39201733554217    5.47939972578059
C         1.93411620757981   15.34357816052785    8.18470454591578
H         1.36477644476445   16.24829442156192    8.03541320501647
N         4.89631561792174   13.58917064826753    6.87234271689092
N         6.63428488158632    6.78751333688870    2.62061772979646
C         2.07076541934061    9.60125538157723    6.08447046547784
C         4.97707333156401   12.42206517338741    6.19277505960195
N         0.90571850939271    9.63181616133361    6.76534685070587
C         3.17402574758872    7.94305969816283    4.69768851715902
C         3.70412844963666    8.78040562288674    3.71854268793290
H         3.22492084136016    9.72113965845360    3.49961619250842
N         0.16794078949443   14.55247587305459    9.69113252751592
N         6.13493029168333   12.49689930194571    5.50454230268153
C         8.54263729284080   13.04677662845683    4.28228183262957
H         9.48211164213667   13.22239991009843    3.78503488992893
C         5.40800100562774    7.15924397194910    3.30199887634568
C         3.72920383586278    6.68939684191895    4.93574931725284
H         3.30230759922534    6.04283265875477    5.68662194187324
C         3.79087741932189   13.91257808502127    7.68344637587172
O        -0.38832576942099   13.53979881296109   10.05757539367446
C         3.35977979910310   12.99262135724326    8.63718504857812
H         3.94558681213706   12.10939885480368    8.83505939363452
C        -1.05300880493659    8.28258371009367    7.23061638222108
H        -1.59334774766605    7.36271335306492    7.08061513619240
C         0.19733622981434    8.44548380674281    6.58964850234049
C         1.46340270344189   14.37888848237523    9.06448963895313
O         6.97190735402788    5.63123559047244    2.67519307438419
C        -1.52598590428522    9.28618812180945    8.01512888066449
H        -2.47229073779158    9.18999100587705    8.52102963893951
C         6.67777020185146   11.56824890604645    4.66011318527305
H         6.11145827022216   10.65888276982213    4.52997552917048
O         7.23666486483204    7.67918472210178    2.06631405576429
C         0.97699563782259    7.66306942192693    5.77221300475501
H         0.80020463668253    6.68695264974416    5.37318425033978
C         3.10234077343025   15.10492649743335    7.48465865933023
H         3.45994690562602   15.82195337664192    6.76212663490221
C         4.84938370570035    6.29204953557449    4.23053446867442
H         5.31062678870294    5.33159477130223    4.40306609663514
C         6.77862619913040   13.70843460715647    5.74971703712880
C         7.85818165098597   11.82174907403222    4.05079583477802
H         8.28420700848455   11.08956930167550    3.38512887354318
C         4.83195151642659    8.39169733538955    3.02446839785845
H         5.27269115869418    9.02376389128449    2.26848069184312
C        -0.77535075396472   10.48316058957853    8.17929157730393
H        -1.15147591591234   11.27255499244106    8.80974820819665
C         0.41308753855433   10.63571478763246    7.55242621154899
H         1.02767418039942   11.51901274369086    7.62857765327876
C         8.01531029949129   13.97813756271517    5.11912552687745
H         8.50349390307552   14.91709182340798    5.32055099985431
O        -0.27171896484085   15.67130395219638    9.76933677358272
C         5.96483034127620   14.39624276689931    6.61766757094577
H         6.08921150868442   15.35587876575324    7.07266773311773
C         2.18397172694810   13.22032265555601    9.32334385629567
H         1.81250725883924   12.51397291180565   10.05006856717288

