105
CSD_code = ZIWDAK | q = 0 | S = 0 | Stoichiometry = C54H48N2Zr | MND = 5
Zr        5.34122132547464   10.45532741594317   11.89210513835796
N         6.29730322434016   10.60457099482286   10.03660407066336
N         6.22994871546980    9.36507954125631   13.37729877760233
C         3.28465049421163    9.55292429092746   11.61690878303551
C         2.82589650593990   10.92573761620550   11.49189888809162
C         2.13878910170985   11.58894280121387   12.53161118097711
C         1.80483368013492   12.92344700077554   12.42875389332028
C         2.13815280684089   13.65574990751819   11.29683604811536
C         2.79044338420718   13.02164157726746   10.24771895722958
C         3.12560567296371   11.68441222146770   10.33348214702209
C         5.39536650685275   12.45624339914324   12.89651323960194
C         6.53480705557462   13.02435941120376   12.16697039299563
C         7.84117297862642   12.54268642448965   12.38828542036862
C         8.92237961950217   13.07673661354291   11.71641355835710
C         8.74714260299477   14.10506049143997   10.80038883024687
C         7.47298207339613   14.59654038633896   10.56963400927686
C         6.38384191503103   14.06836009282124   11.23932817893288
C        12.49264936766108   11.47011523598636    6.55453230306180
C        13.68871254826076   11.29063759584414    5.88519594934094
C        13.74171448738922   10.49208342891755    4.75499032967387
C        12.58932846395515    9.87565686661225    4.29704758799262
C        11.39134840156825   10.05844146500296    4.96226512395019
C        11.32644219354309   10.85786946135308    6.10108066327083
C        10.05471322995356   11.04939750164474    6.81357164807797
C         8.86796561342224   11.25157655702052    6.11473152393910
C         7.67248707790154   11.42726074818343    6.78728195364568
C         7.63266049921323   11.40149110982672    8.17359450273132
C         8.81458142154475   11.19409594167041    8.87515310827862
C        10.00924812959101   11.02621053482716    8.20627391875932
C         6.34144213052917   11.56162126868123    8.94390461986043
C         5.98064178775190    9.30262844867842    9.74756004830476
C         5.23898740576894    8.82388149321832    8.64751191526036
C         4.75770238825709    7.52893994612363    8.64555656482690
C         4.99053166937298    6.67228711334864    9.71025514699646
C         6.23108168800897    6.09569882571785   11.82630776950645
C         5.84005470827425    7.06106506282361   10.74343983596302
C         6.37917855315226    8.34624564195700   10.74326414665535
C         7.59889951209224    8.64101193062064   11.57348710189517
C         8.93988205570784    7.85709991208688    9.60068300629245
C         8.84157902875259    8.36557542753415   11.00971406938387
C         9.99420794441740    8.53472253065992   11.77371374977505
C         9.90330342718531    8.93526571413027   13.09334381280640
C         8.67675156432991    9.20238614619561   13.67108638556164
C         7.49524267662651    9.09062566557647   12.91697524076883
C         6.06154437312019    9.62066495994859   14.79741037579899
C         4.58727108942289    9.70494664272545   15.10169505794241
C         3.77012289952734    8.62320931063274   14.77773616857028
C         2.42748963038888    8.63082989446300   15.10352387194532
C         1.85763278220855    9.72859727332841   15.74699483758749
C         2.67490583614411   10.81070098627006   16.06347979699859
C         4.02218361972162   10.79628606137273   15.75114985163996
C         0.42608027257505    9.74434861056777   16.08274478845910
C        -0.33742883508445   10.89038706490225   15.87363906808832
C        -1.68396409162798   10.90418216387874   16.18588212088074
C        -2.28714114835717    9.77686606959353   16.71790478692908
C        -1.53646939337821    8.63286535422653   16.93171226593169
C        -0.19143041173812    8.61436087089716   16.61325610493559
H         3.28914031083477    9.00257037108003   10.66627978208793
H         2.76490405085166    8.99061072815059   12.39585387514554
H         1.85644891229745   11.02628369489232   13.41252310138582
H         1.27031577365776   13.40470316935772   13.23600330983552
H         1.87683915217501   14.70047541586415   11.22551081733896
H         3.02049403660598   13.57560425649988    9.34741502505176
H         3.55607902949223   11.17620142914629    9.47283878569977
H         4.50647588467328   13.09474240286005   12.81267437869196
H         5.64599756478346   12.32064863989002   13.95713370145409
H         8.00257788181406   11.75755189402379   13.12570301893833
H         9.91467119491974   12.69416895470509   11.91147826802436
H         9.59474511455107   14.52018707168745   10.27712693037989
H         7.32773174151937   15.40437572262467    9.86581392178266
H         5.39346112784237   14.47348967356993   11.06462930970025
H        12.45331422512514   12.10624797533637    7.42689202730493
H        14.58412251935255   11.77690035216469    6.24501541329975
H        14.67701777544137   10.35037334631827    4.23366462573741
H        12.62566270887118    9.24759242112109    3.41847220829240
H        10.49883385249833    9.56144309091293    4.61041297425563
H         8.88455372890336   11.28780900132689    5.03489285173916
H         6.76253816349393   11.58735066633690    6.22471941433369
H         8.77701211751470   11.15063183991943    9.95507958401815
H        10.91477055015522   10.84795539721763    8.76738730197919
H         6.31533960505780   12.57102227405684    9.37680694296123
H         5.49098662255206   11.47575895712171    8.24661534564957
H         5.03444955924986    9.46163093724812    7.79938749230359
H         4.17201612736830    7.18605287523064    7.80406623423723
H         4.56219558584807    5.68107018940220    9.70912336255723
H         6.12084983693488    6.56404995363771   12.80417328936059
H         7.27645881562322    5.80594754155016   11.71746911863796
H         5.61643999921676    5.19948165958428   11.78610276471173
H         9.98009326302630    7.74730201683089    9.30426060630005
H         8.45216985550624    8.54150746328350    8.90895997668219
H         8.44584907565185    6.88997311485365    9.50905451483487
H        10.95940725730238    8.33039123974216   11.33519463854399
H        10.80095383756042    9.04161998391626   13.68594805233239
H         8.63746587367089    9.50576079800424   14.70735023362690
H         6.57102877007367   10.54521125933246   15.13277052730874
H         6.48990454822999    8.78425020644895   15.37940220877980
H         4.20664695376834    7.76232024592409   14.28609400366979
H         1.80509755540484    7.78616377688490   14.84483332000566
H         2.25461761691236   11.65962463992903   16.58231230789315
H         4.64110328228476   11.63321235510982   16.04388027900448
H         0.12472764998872   11.76714839562562   15.44387514496605
H        -2.26625103974105   11.79734289311073   16.01229117583996
H        -3.33836645709335    9.78949890833437   16.96470754562755
H        -2.00143253199545    7.75193848870201   17.34985964184165
H         0.39386865988327    7.72494528790055   16.79653800955124

