62
CSD_code = ZIWFIU | q = 0 | S = 0 | Stoichiometry = C17H30As2B9NP2Pd | MND = 7
Pd        7.66126557012586    0.89005444637213   13.29892667802050
As        6.19225642256846   -1.22782083428602   12.13695801556558
As        4.98555629445394    0.11035657617709   13.75774434989510
B         5.72622611668456    2.12455877120024   12.94681123446407
B         6.76387403834459    2.19531946294738   11.56469226181887
B         7.12178812707585    0.56013208649056   11.08535765237257
B         4.26868509931920   -0.26160013830376   11.72470438517556
B         4.12797070009308    1.42859085962330   12.38075619589630
B         5.06284312788197    2.53200871623083   11.32553789482063
B         5.94395371345648    1.55957184900577   10.15906551231370
B         5.55415085106101   -0.16166262677478   10.45842466199112
B         4.29522421774975    1.08865211577114   10.63667215267624
C         7.91615541951098    3.18814527931223   11.62283337970006
N         8.83094737536598    3.88648392787968   11.75155302849307
P         7.99540166206495    1.59527000999517   15.53365327733400
C         6.62157737050923    2.06886036708031   16.67215811744670
C         9.17438081073783    2.96300133919116   15.86009527011335
C         8.64927088908738    0.17276119374192   16.47862197663391
C         9.63208089725704    0.25070065295685   17.45610086967089
C        10.07526637469287   -0.89813191623658   18.08932587285669
C         9.53899949219433   -2.13084836489131   17.75761288134357
C         8.55262786025825   -2.21692527428712   16.78723926298599
C         8.11714694343173   -1.07116622170485   16.14948538043947
P         9.85488283291969   -0.00740599893508   12.94006533920233
C        10.84720210318833    1.16576144557521   11.94415772390117
C        11.09495817016914   -0.41778145991623   14.24812315223991
C         9.92909700921813   -1.57741412497694   12.00691665749198
C        10.51509639939259   -1.72201756473589   10.75702199027984
C        10.46985512775778   -2.94331432593174   10.10564944776004
C         9.83862096698596   -4.02687911818244   10.69120600964698
C         9.24490670255998   -3.88966822094943   11.93635179886839
C         9.28701257285635   -2.67041008407426   12.58599635795071
H         5.70735912207815    2.92123799730282   13.83114316169348
H         8.12957147264840    0.19925974016062   10.55911685570557
H         3.37371188586569   -1.04246233832721   11.70962505109480
H         3.10956559635926    1.83208207343764   12.84168663371966
H         4.64463559044545    3.62121155139887   11.14490139319353
H         6.21893052797497    1.88232883547793    9.05661611969028
H         5.57524782739071   -0.90080723473313    9.52749159053051
H         3.39090117253235    1.18388148196565    9.88293791851724
H         6.99818225553306    2.18709136483249   17.68724094632271
H         6.18406498665036    3.00599178037379   16.33349699134926
H         5.85282347553018    1.29317494085575   16.65332653199481
H         9.20204854302410    3.23680148461571   16.91372565509096
H        10.16862739909420    2.68183978303930   15.51675071933700
H         8.84744611000469    3.82102690124635   15.27236089927518
H        10.06092947696241    1.20484564707261   17.72386362827505
H        10.84418821394300   -0.83057971406727   18.84519322373677
H         9.89075891608791   -3.02358853334532   18.25273891576748
H         8.13111022785364   -3.17602530418654   16.52484389500593
H         7.35178400718556   -1.13393735079018   15.37366755847509
H        11.85958684824712    0.79909311919535   11.77770071142185
H        10.34643971844807    1.35371471336484   10.99593158204642
H        10.88223034231226    2.11460815953073   12.48076059262015
H        10.72527914543765   -1.22009440077106   14.88177968190222
H        12.02889369471789   -0.72797995530719   13.78188602183204
H        11.27355245808631    0.45889476237280   14.86735027100119
H        11.00191930394806   -0.88413886788827   10.28174498616105
H        10.92671688322749   -3.04639691536761    9.13218013827323
H         9.80414249525696   -4.97520550244583   10.17623254873599
H         8.74769952422968   -4.73054480689689   12.39742230964514
H         8.82057152038004   -2.55330623807268   13.55976467886506

