74
CSD_code = ZIWLOG | q = 0 | S = 0 | Stoichiometry = C31H37N3NiS2 | MND = 5
Ni        3.24911680771649    1.89252491393340    3.03253418529067
S         3.23052832024378    1.08180691096727    0.88477018716600
S         2.49307073592718    2.49501978428595    5.04816913779827
N         3.35012500381037    0.00195325733561    3.66151123610963
N         5.51286125315869    2.15751189937613    3.37445907106616
N         2.76757605239717    3.53335501109576    2.37429738682615
C         1.98242859905827    0.08864833124331    1.61405952213632
C         2.10243102462033   -0.31798213279891    2.95801555961697
C         1.09520850883350   -1.06879407465336    3.53694843087115
C        -0.03417391362351   -1.41089514701000    2.80428386608631
C        -0.14080852110816   -1.03623072055197    1.47747152208672
C         0.86296913214647   -0.29221630949178    0.88411259877804
C         2.75019119135871    0.96268101288841    5.82301708961417
C         3.21691501854550   -0.13936519532837    5.09691424664233
C         3.49376374234740   -1.32268498592657    5.76725603385141
C         3.29721855232057   -1.42229599592781    7.13467791884777
C         2.80214473748346   -0.34050604706827    7.84598458982423
C         2.52866867932204    0.84294457863776    7.19538859938542
C         4.41650411094631   -0.86423228604423    3.12947167138278
C         1.49285515624587    3.69045951908647    2.01391482595581
C         1.00820370013037    4.86522731122127    1.47240812623212
C         1.85659723664439    5.95201936719744    1.28238690237203
C         3.18175793281825    5.76705749923888    1.67303976489738
C         3.59454289876871    4.56449073983129    2.20900766505394
C         1.40860950167712    7.27457346310844    0.69242995353783
C         1.65690210071093    8.38368033948287    1.72458477667269
C        -0.07702337407580    7.27605020559911    0.32509947119523
C         2.22525325270997    7.54936539670311   -0.57832023349669
C         6.38233817390983    1.95723102678945    2.38465382250271
C         7.74061572262256    1.81315958102194    2.58734483919890
C         8.26729447776912    1.87366406972428    3.87711332751092
C         7.35143331796206    2.08432818124847    4.90208853676671
C         6.00528311338529    2.22092076864469    4.60801640127042
C         9.75988962126027    1.72308613979663    4.10148035954517
C        10.20568919949520    0.35337945938917    3.57078428136246
C        10.48661896226390    2.83980648147703    3.33855634563030
C        10.14175535879003    1.81878571983300    5.58047085284395
H         0.78889747829780    0.02213532508543   -0.14650068261684
H        -1.01278379033586   -1.31279411505080    0.90299174409810
H        -0.82114375291609   -1.97795234376241    3.27802512664627
H         1.17325180003992   -1.37457923836723    4.57016230625853
H         2.15726349802189    1.70261909574022    7.73241125714492
H         2.63782406399793   -0.42029942942045    8.91052995107991
H         3.52153259807645   -2.35049424065473    7.63862026971415
H         3.85660895485772   -2.18710635334494    5.23307177886586
H         4.10908382900714   -1.91467403776410    3.13649272973897
H         5.31780883535858   -0.73956280934917    3.72940263210937
H         4.63320860372408   -0.58300055070503    2.09877919383945
H         5.28767678218949    2.39737212179856    5.39967450003620
H         7.66147002689952    2.14793897286011    5.93145539896089
H         8.37916175254907    1.65543082828348    1.73263591286906
H         5.96248923415431    1.91080076873821    1.38734801129781
H        10.00709215622481    0.25507913122789    2.50712727392313
H        11.27337929387158    0.22248537458687    3.73126800002248
H         9.67900617342027   -0.44327936442406    4.09228300907169
H         9.66006090437589    1.03557115911679    6.16131877199601
H        11.21799403347192    1.69964204460539    5.68471677726938
H         9.87013247639716    2.78761392730814    5.99342049555515
H        11.55962901291199    2.76060088434805    3.49714144537612
H        10.15708923348480    3.81473049475396    3.69217520786586
H        10.29530798641190    2.78099017893965    2.27064324696321
H         4.62248682957956    4.41802752051560    2.51612014462602
H         3.90783881791196    6.55686989616311    1.56486655312427
H        -0.03395484101034    4.91106803013387    1.20576038351258
H         0.82835509827510    2.84306330949429    2.16091328436067
H         2.71179097412848    8.46981058482911    1.96968581830023
H         1.31941536627505    9.33942830805473    1.33056914866948
H         1.10918926879575    8.17528352204439    2.64111148562443
H         3.28663340473618    7.62726405434272   -0.35999486624755
H         1.90151181536734    8.48281995493488   -1.03269208561581
H         2.08263580296659    6.74700291133162   -1.29893019465087
H        -0.34538955647577    8.24409644540840   -0.09205669387930
H        -0.29601925473143    6.51689423696056   -0.42207898740977
H        -0.69739029892652    7.10567532704891    1.20182877911212

