50
CSD_code = ZIWLUP | q = 0 | S = 0 | Stoichiometry = C22H23N3OPd | MND = 5
C         6.84909826915757    4.37100487111152   16.91376332788075
C         5.58709847060057    2.52817538985121   16.86129529802330
H         5.28787992668753    1.54661787426899   16.55665303805552
C         5.00716765575732    3.40617372645411   17.71642169293866
H         4.11617303320729    3.34308480964373   18.30426288350371
C         7.55788978424797    2.62378362752093   15.35594727597797
C         8.39436462430011    1.54367572892417   15.63465350519462
C         9.19784185864832    1.04910096671185   14.61881522130646
H         9.85154402302516    0.21368932927871   14.82432828698081
C         9.18605679564878    1.60816926671243   13.34885702621209
C         8.35526438480179    2.69255164969787   13.10361308272701
H         8.34742398661252    3.14017840301104   12.12005775458013
C         7.53607986573367    3.21965675392189   14.09104296472919
C         6.65967260371425    4.40552542807254   13.80838217147484
H         7.01930819221661    5.29726066554836   14.36594108813864
H         5.63320171612633    4.21255786261838   14.12024815988809
H         6.66529101626924    4.63784368690741   12.74663927437216
C         8.43489067087517    0.95226217777891   17.01082562368511
H         9.32097606150151    0.33544592970849   17.13426839724418
H         7.55921260369215    0.32939747533102   17.19150564231771
H         8.44602904184431    1.74106765353131   17.76154465104951
C        10.08077821830079    1.07114399353264   12.27414512727943
H        11.07058329303534    1.52086803717874   12.35737925155870
H         9.68675585340499    1.30229124292327   11.28775108852252
H        10.19427901392144   -0.00637617085862   12.36686903085297
C         5.84581403207831    6.80329209821602   18.13326099831171
C         5.30214374538072    7.89676165503178   18.98615368130493
C         4.45968072161309    7.63095228631216   20.06097619518289
H         4.19385850159829    6.60734580515522   20.26938127130419
C         3.98323753586708    8.66877061467075   20.83903175902649
H         3.33076544069814    8.45990785067059   21.67492059637128
C         4.33955198843781    9.97756367327992   20.55271135881919
H         3.96497615793917   10.78630504930940   21.16391812577679
C         5.17778454919536   10.24700239576319   19.48376004049048
H         5.45754814128736   11.26652985388806   19.25954299835706
C         5.65886313598792    9.21171311860223   18.70451027653108
H         6.31530422438403    9.40403157988005   17.86864713512777
C         9.46008320479423    7.37540536968507   15.67866357288905
H         9.14762824482412    7.36227042556831   14.62931873404438
H         9.62022580135317    8.36232484817444   16.10128375465519
C        10.15302990481926    6.28839493926322   16.20115060342822
H        10.73979919142734    6.40755067492837   17.11397202953838
C         9.86407306269019    4.98335965414462   15.71530846513078
H        10.37504367426510    4.14611674230435   16.18205744818472
H         9.73234696264266    4.86034494412572   14.63979008171724
N         6.70995216022800    3.13708980685411   16.37146651452272
N         5.78486631007054    4.53442707910000   17.72098076529870
N         5.41120442781581    5.61295199389532   18.46009844434459
O         6.61697212894202    7.14104475637931   17.18042323064206
Pd        8.11958578833569    5.86839240540332   16.43496105451111

