116
CSD_code = ZIWNUO | q = 1 | S = 0 | Stoichiometry = C56H52FN2P4W(1+) | MND = 6
W        -0.16704938422073   -0.18944670595509   -0.09054001749038
P        -2.36370189408002    0.88553133359964    0.01173246099622
P         0.52448376928071    2.02316700634135    0.71174273751331
P         2.00336594976477   -1.26165039022165   -0.52928518437177
P        -0.94459961429038   -2.21651087859545   -1.24650245589897
F        -0.08993355996539    0.31929492372586   -2.00962202906501
N        -0.18034756586137   -0.58754388177250    1.65519687476393
N        -0.06822190292018   -0.77644453767516    2.94923689143249
C        -1.08656193437813   -1.10791029460749    3.81149916323544
C        -0.56681732822443   -1.20901759506532    5.06926785216985
C         0.81623925114757   -0.93567679677824    4.97831425841469
C         1.09743654575402   -0.67256222114693    3.66970598619039
C        -2.15011545793177    2.65463047042277    0.53857024516451
C        -0.99670623370692    2.72000312658868    1.53457577650478
C         1.73019346696336   -2.82879735967839   -1.52104144892679
C         0.46648513356797   -2.68694974018268   -2.36161373924929
C        -3.40711681746632    0.13218363421195    1.29566425875160
C        -3.65164361121897   -1.23072456352843    1.12756272335928
C        -4.41733980134877   -1.93026575334226    2.03929576986130
C        -4.94082225088040   -1.27315251516446    3.14360470801063
C        -4.69540388793122    0.07791328629893    3.32307717520320
C        -3.93362380429715    0.78334163131663    2.40475633015767
C        -3.49263006593209    1.06737940363863   -1.40392773710168
C        -4.80496915584345    0.60856079943345   -1.40015920117027
C        -5.60057801756012    0.78854824884746   -2.51774077161257
C        -5.09786219823761    1.42434341743596   -3.63999166234175
C        -3.78643575258850    1.87170021281617   -3.65277215540364
C        -2.98476486206694    1.68704932771110   -2.54358602458513
C         1.78454884511164    2.10373272482206    2.02026135739998
C         3.08403933620320    1.78478877725494    1.62936517549775
C         4.11363074923006    1.78783666377858    2.54969253879951
C         3.85263666512379    2.09697432207959    3.87590775866436
C         2.56382295496174    2.40923740281024    4.27161663897189
C         1.52945480361966    2.41534705631591    3.35067626395617
C         0.97417254217001    3.46289995928589   -0.31724136259289
C         1.59919724019940    4.57400367523388    0.24195216092074
C         1.89212565778023    5.67132099782671   -0.54626038398079
C         1.56178072750746    5.67209329782280   -1.89256659253738
C         0.93724395176484    4.57064820333646   -2.45340835734701
C         0.64534723883620    3.46887921346146   -1.66899485993573
C         2.88615008817457   -1.91101407426330    0.91847853063000
C         2.23456836362218   -2.86783993053312    1.69415484352334
C         2.82280569423547   -3.35044299343902    2.84716583614403
C         4.06064201425075   -2.87120093231300    3.24589781879293
C         4.70560825832037   -1.90902806767864    2.48768386916115
C         4.12282002191858   -1.42644483745373    1.32864574173535
C         3.29692240132223   -0.45567863813250   -1.52855396525724
C         4.48344459540218   -1.10770903931185   -1.85989518854031
C         5.43471601042037   -0.45862113751697   -2.62411698919251
C         5.21205574610692    0.83784233060280   -3.06511032675135
C         4.03443928523199    1.48930112632843   -2.73959609714328
C         3.08092365068739    0.84305580955766   -1.97258210776106
C        -1.20753246069233   -3.75694045605686   -0.31671813816624
C        -1.35169850000927   -4.98779952985417   -0.95173186915486
C        -1.53057096132552   -6.13446229444546   -0.19985542447312
C        -1.57139442668598   -6.06337929094512    1.18456364745838
C        -1.43917221979402   -4.84006067139957    1.82099895747709
C        -1.25818836765158   -3.69112003916092    1.07124250317187
C        -2.33909174274413   -2.18815936220008   -2.42237823642653
C        -2.24927100695576   -1.38989317668293   -3.56035120200242
C        -3.30939621863446   -1.31539119554371   -4.44365135581793
C        -4.47735955495517   -2.01528076993785   -4.19087394397593
C        -4.58264519414580   -2.79155065493463   -3.04932707107012
C        -3.52117589051099   -2.87936279005759   -2.16758005527954
H        -2.08876394329191   -1.23651415300092    3.45357990105685
H        -1.11087730345263   -1.45268791642703    5.95970060916942
H         1.51980885006245   -0.93482782611498    5.78629684849466
H         2.02006086627513   -0.43016199305537    3.18182813734033
H        -3.08016823351420    3.05952667527098    0.94814468629075
H        -1.90337419276789    3.23515565870313   -0.35897413117211
H        -0.81155768621863    3.74818478076290    1.86242461264636
H        -1.22090422771705    2.09105735456588    2.40439847865674
H         1.62252600590839   -3.66602280169163   -0.82306444609826
H         2.59793617269325   -3.01902755525761   -2.15880598769399
H         0.59236470669358   -1.88048919847101   -3.09214285352055
H         0.24056312980508   -3.61154655395594   -2.90146915813308
H        -3.23201694625954   -1.72964171112421    0.26059939442402
H        -4.59849249462169   -2.98518291148422    1.89762597742356
H        -5.53306651075918   -1.81494561335869    3.86467979541145
H        -5.09797980537823    0.58884889421146    4.18478909480737
H        -3.75785029973408    1.83556704386943    2.56887252680080
H        -5.20807364376540    0.11865773524225   -0.52583703078921
H        -6.62030502518606    0.43459226759160   -2.50814870749854
H        -5.72615794953747    1.56863169885486   -4.50549451577218
H        -3.38970869111679    2.36190736865613   -4.52923554052612
H        -1.95512739762619    2.01642350406169   -2.55965687250723
H         3.27409280017218    1.54135243957052    0.59034123063542
H         5.11972013321712    1.55145665074545    2.23750191488792
H         4.65397539663201    2.09523044089128    4.59852085304828
H         2.35855951871413    2.64898745931686    5.30373459434157
H         0.53198450051777    2.66023685157335    3.68123773759755
H         1.86021925292963    4.57290408464165    1.29104560600353
H         2.38000109690288    6.52951739998553   -0.10950797283057
H         1.79384591392359    6.53071258533055   -2.50387589283675
H         0.68055493171688    4.56873381568636   -3.50231993411654
H         0.17160419481175    2.60344026094657   -2.11153211347751
H         1.25664119974577   -3.22514774544636    1.39631965061810
H         2.31246853281181   -4.09382814193970    3.44030698558803
H         4.51904071161404   -3.24458481474894    4.14836474822519
H         5.66787018138221   -1.53160284372345    2.79919036856926
H         4.63288543975021   -0.67820652855235    0.74002228535368
H         4.66395351936443   -2.11467447306537   -1.50816331664564
H         6.35478482852303   -0.96355774022024   -2.87711573185999
H         5.95900518792553    1.33766761650433   -3.66257981130403
H         3.85686764684977    2.49858706408331   -3.08022733043746
H         2.15491069153317    1.34229439815554   -1.71525591114812
H        -1.33905549389892   -5.04600316504663   -2.03126009412288
H        -1.64151271859428   -7.08757708964651   -0.69442207445876
H        -1.71125154046953   -6.96241525564265    1.76491097126282
H        -1.47627500774385   -4.77799518984940    2.89832464688083
H        -1.16078569744479   -2.72612804437376    1.55250628907207
H        -1.35140074320814   -0.82146761043064   -3.75274953352811
H        -3.22534379061638   -0.70790518833784   -5.33197791416671
H        -5.30418846088691   -1.95539552360635   -4.88169066764886
H        -5.49256858871823   -3.33580102124294   -2.84583427859762
H        -3.60819833158646   -3.50101070678694   -1.28675702310652

