73
CSD_code = ZIWPAW | q = 0 | S = 0 | Stoichiometry = C28H37Br2N2P3W | MND = 6
W        -0.33324811279618   -3.68707144878465   -2.31566026076169
Br        0.60921112057384   -3.89313967805152   -4.74224420752633
Br        1.38769930903472   -1.90774036816466   -1.73421718576000
P         1.50391877028190   -5.15607222436862   -1.65297177804849
P        -1.23156373510163   -3.45541838072756   -0.07702746251233
P        -1.52582232633568   -1.70269875469942   -3.14860015235412
N        -1.51760034071860   -4.99957118212073   -2.56884827152760
N        -2.35585877762054   -6.00047952124324   -2.69433282734527
C        -2.37593480141314   -7.13660105862968   -1.92661245099670
C        -3.40758330335581   -7.92472388046635   -2.35443954661275
C        -4.04511300022150   -7.24724352761917   -3.41338302872528
C        -3.38011504669226   -6.06843253445800   -3.60291002593609
C         2.33363844072204   -4.98695926194281   -0.01513452947718
C         3.02173094258052   -5.12535936055603   -2.69052357904287
C         1.06518692457747   -6.91693730895107   -1.75897026702524
C         1.07640700819396   -7.79145021844157   -0.67959309886607
C         0.67845019837824   -9.10718857129322   -0.84876945378366
C         0.26429032907802   -9.55701211299710   -2.09050921086364
C         0.24349445599425   -8.68726817811637   -3.16934953103312
C         0.63670315191976   -7.37347674532473   -3.00416840194250
C        -0.33089606070339   -2.47146413606214    1.18051038343824
C        -1.52062511405109   -5.02826098771112    0.84114449278693
C        -2.95007924854356   -2.82374506322440    0.06953807891581
C        -3.87198465222139   -3.35721480770895   -0.82761530437997
C        -5.19769735920312   -2.97104964824914   -0.79608977629260
C        -5.61574875402929   -2.01830638525370    0.11968009610574
C        -4.70233777317613   -1.46224885952835    0.99889972809390
C        -3.37700886868630   -1.86388594692333    0.98135170414138
C        -1.84772375288675   -0.29276260822906   -2.00994551591773
C        -0.70400840550859   -0.75000016153258   -4.49202303236593
C        -3.13577016114696   -2.01213367183927   -3.93706305621112
C        -4.33553846989431   -1.47374290121510   -3.49107218945233
C        -5.51427014812848   -1.76511442299964   -4.15594390622438
C        -5.50536767199820   -2.58958362666314   -5.26783105122052
C        -4.31111211551567   -3.13121200537362   -5.71615856788953
C        -3.13266084441749   -2.85060297094574   -5.04985891986971
H        -1.64222979791122   -7.29784069513421   -1.16205663994971
H        -3.67606283819344   -8.88197816439376   -1.95268045891868
H        -4.89386370019712   -7.58899666134641   -3.97215567536159
H        -3.54306067808508   -5.26777266383811   -4.29718051834279
H         3.10586610667005   -5.74794420377352    0.09455968974844
H         2.80292692683017   -4.00214284177052    0.01712836220582
H         1.62218566879203   -5.06412574509917    0.80610103761045
H         3.77076203376570   -5.79609955757742   -2.26850221687414
H         2.79155058746692   -5.43110350681716   -3.70995897312688
H         3.41279196740856   -4.10582994388044   -2.71361503725529
H         1.39249767953824   -7.45422941564033    0.29749669673246
H         0.68905151580461   -9.78117447200882   -0.00406142776290
H        -0.04860904535278  -10.58271133775302   -2.21573746622050
H        -0.08864005982474   -9.03144905867428   -4.13710958050431
H         0.60225210919689   -6.69172185402417   -3.84434383067811
H        -0.78720866578396   -2.58500045119282    2.16328889463966
H         0.70292436910816   -2.81386912085273    1.22109673113389
H        -0.32148186995932   -1.42157705326971    0.88726815572532
H        -2.29273393798580   -5.59327579006350    0.31991619396265
H        -0.60946989084434   -5.62557004727451    0.86574806329248
H        -1.85855536695258   -4.81959651780733    1.85706947825129
H        -3.53859850500528   -4.07822474857877   -1.56220361583316
H        -5.90033442771525   -3.40617370899988   -1.49100331274516
H        -6.64905211460187   -1.70585276912781    0.14444855302667
H        -5.02196582426762   -0.71197720471472    1.70777039443164
H        -2.68337156747812   -1.41841988339646    1.67853997844567
H        -0.88417591635725    0.08028562778689   -1.65821987343361
H        -2.36227649548119    0.50806059783827   -2.54039515706252
H        -2.43997284996584   -0.60736681784023   -1.15167766206379
H         0.28044375397679   -0.42458809221945   -4.14926006183131
H        -0.57512872007614   -1.36890171539467   -5.37902594391523
H        -1.31044980419695    0.12149681151680   -4.74164035150931
H        -4.35930106036024   -0.83079187398506   -2.62400541332611
H        -6.44398596186113   -1.34256501174209   -3.80280540117777
H        -6.42744925290169   -2.81167207579799   -5.78427291925897
H        -4.29933412720199   -3.77675661349590   -6.58232097576087
H        -2.20200204696578   -3.28537089925184   -5.39365760980978

