96
CSD_code = ZIWRAB | q = 0 | S = 0 | Stoichiometry = C31H58BO3Si2Y | MND = 12
Y         6.03399171042284    8.77113015461484    3.36990639926832
Si        8.70882892739083    7.64719801998394    5.82136102632412
Si        3.55314868554958    6.82700438631967    1.70507542573937
O         4.75030449734929    9.77883926509718    5.72197023916323
O         4.47656819970836   11.03271792083980    3.76924792908792
O         3.46112943304582   11.85918275129309    5.65155758040181
C         8.26075757299839    8.77017854482060    4.37199301846614
C         8.95469728186533    8.66880752334662    3.08936642173495
C         9.19344017087943    9.93691221799110    2.59828300850405
C         8.70295665613927   10.88880361259598    3.53346900341129
C         8.14744855944608   10.21306952524200    4.60675201304342
C         9.35938867759119    7.39350420759521    2.40516922253549
H        10.44383473879805    7.26748860205198    2.44250590494609
H         9.06578915709465    7.40547706430749    1.35311980907326
H         8.90056306339651    6.53352164235501    2.88232271411384
C         9.86258257569492   10.29902819896084    1.30859746249916
H        10.29974976723003    9.42214748937443    0.83847196626081
H        10.65489263818791   11.02753972774672    1.48223943916234
H         9.14931366233670   10.74302817914771    0.61097071093228
C         8.85040404623811   12.37069607930550    3.37371914656734
H         9.90054589132559   12.65698054563982    3.46154331285705
H         8.29062716904130   12.90783107609249    4.13588389354553
H         8.50549950425510   12.69474997122503    2.39096000007189
C         7.70857430954223   10.87043350807029    5.88815573047823
H         6.89247362239245   11.58143417511592    5.72719205720281
H         8.54109186429731   11.42530978559023    6.32760552946088
H         7.37828956025366   10.13039571191072    6.61098523198316
C        10.13669445195637    8.43001974153744    6.83790980129186
H         9.86133414875748    9.39777074928837    7.24257674929895
H        11.01259861083283    8.57878844312795    6.21436541985293
H        10.42668744337507    7.79493100857742    7.66976549284506
C         7.22275478458768    7.37080106646556    7.00511679121816
H         6.29899632274604    7.23540736703193    6.44607869971653
H         7.08712158337808    8.19598125907991    7.69690560359071
H         7.37774419757635    6.48019053171762    7.60653997580057
C         9.32613694514789    5.88652299487425    5.39770355758903
H        10.21502418897754    5.90068863655747    4.77806606759215
H         8.56723251573970    5.29841351994010    4.89469743612851
H         9.57950080503985    5.36603572550533    6.31662148789853
C         4.48957167996069    6.88435942893407    3.35443233150221
C         5.39666566723447    5.76891590592868    3.65533529545050
C         5.13384233082403    5.30273434669197    4.92065262781654
C         4.06714171403795    6.07477280413629    5.48219990283078
C         3.66605235254007    7.01161650136480    4.55943032310466
C         6.34893590721962    5.16618934681231    2.66160386870527
H         5.85787338397456    4.36605404796139    2.10264388419187
H         7.21202255770331    4.72827216283274    3.16104141021277
H         6.70269784164625    5.91441732511470    1.94923442170915
C         5.78811277583932    4.16407576534908    5.63608567374389
H         6.46380493513171    3.62336582443934    4.97850570221739
H         5.03353543912512    3.46426503836604    5.99623221641285
H         6.35499199869011    4.51395291996329    6.49976810962701
C         3.50575699342719    5.81669834151940    6.84566555190303
H         3.03562792932498    4.83244786542844    6.87848966481555
H         2.75252313000594    6.55416530957997    7.11573758639235
H         4.29294552398916    5.82655742129690    7.60182110377818
C         2.47693696076902    7.92128740365858    4.67425387164890
H         2.25917064110122    8.16048124007199    5.71425584402262
H         1.58900687193172    7.44121708564993    4.25598995882444
H         2.64104687461607    8.85549480026070    4.13707956231416
C         4.66373324328892    6.59338086673551    0.15753806341148
H         5.50975123029070    7.27681565310771    0.15787387237928
H         4.08743781762943    6.78671530983924   -0.74204849012564
H         5.04703665155966    5.58270348987071    0.07976627561826
C         2.58097185638402    8.44916046784205    1.35812418109082
H         1.64938260614567    8.49650145999354    1.91134029054911
H         2.33244275402842    8.52320881856515    0.30408813045787
H         3.17950532151517    9.31968927340090    1.61681666364752
C         2.29639760793607    5.37903726834593    1.71356971552458
H         1.72965651439534    5.33153581771208    0.78905772937613
H         1.59062459679168    5.47493122744481    2.53197303701693
H         2.80611824336764    4.42966438320508    1.84049403904112
C         4.45261752869879    9.52702295178642    7.09529590895066
H         3.49232454661466    9.96909383290691    7.36188452430414
H         5.23180266628150    9.96576754530281    7.72149312667655
H         4.42783003459907    8.44815441336861    7.23209655171096
C         4.00171373211429   12.35326256696223    3.40575644748985
C         2.99817484909547   12.68867152863745    4.56802012007110
C         5.22607596287493   13.27188505146837    3.39010887696658
H         5.96683952525399   12.84125635840181    2.71959507457352
H         5.66735049088562   13.33584278798873    4.38178307647843
H         4.96531394046731   14.26688846374522    3.04315150092361
C         3.38501638122421   12.31023419342211    2.01249891680179
H         2.59099531157940   11.57383009036269    1.94658783788935
H         4.15852550797146   12.04061356982486    1.29688221954866
H         2.98963705509357   13.28858568406869    1.75363760496687
C         3.00249390911044   14.14627690198620    5.01477987359063
H         3.96904533744486   14.43261630025756    5.41531937581419
H         2.25975682537623   14.27942965450771    5.79671568157072
H         2.75218721236314   14.79062197062781    4.17714648586732
C         1.56382958082169   12.25076576862642    4.25691536277196
H         0.97046359729047   12.33943478307627    5.16379417267372
H         1.54365388892875   11.21057563953368    3.94090206345732
H         1.12625755534654   12.87718821298889    3.48620438768342
B         4.22971504212768   10.87280661862430    5.11920762004783
H         6.11583961809054    9.43922926266510    1.78999949014870

