58
CSD_code = ZIWSAB | q = 0 | S = 0 | Stoichiometry = C23H23Br2N2O7V | MND = 6
V        16.21487799105665    1.80270561536304    9.42048124087532
Br       12.92965694255777    2.85647991327447    6.79434755044803
Br       16.30027312959940    2.82248138572393    2.22177476174778
C        19.75427827293932    1.67704936999429   11.49040216589011
C        19.37658395235931    1.25698347444849   12.75078071452809
H        18.33240942722186    1.03814566340053   12.92947127919334
C        20.30519498749796    1.10412122476635   13.78874092429688
C        19.92968743586709    0.67219064469113   15.08029147783142
H        18.88933078951879    0.44968419668754   15.26905299390681
C        20.86357046707099    0.53626694479938   16.06691533581760
H        20.57377116295493    0.20391634330261   17.05263034687170
C        22.21466733462469    0.82675503522445   15.80784641287342
H        22.93907915773037    0.71379131436456   16.60107230237473
C        22.61043915413748    1.24646486664558   14.56966911988061
H        23.64815816742329    1.46913776079219   14.36909457733397
C        21.67237826951294    1.39675934130438   13.52520143308584
C        22.04659175278563    1.82139240998473   12.24065783876064
H        23.08131355671158    2.04265267341320   12.02883001206903
C        21.12663253949978    1.96249162263691   11.22512523581675
O        21.55785479750552    2.37708562013933   10.02345013382118
C        18.71249981584616    1.83876559209286   10.46951894797649
O        17.48949791544999    1.65243569398527   10.76795783780248
N        19.05403933792559    2.20901491273532    9.24935496590291
N        17.97408231283359    2.30283673092106    8.46588158123473
C        18.13466313271048    2.52798009951387    7.20764718103162
H        19.14547062040365    2.60573620956182    6.80270991404875
C        17.02230713679425    2.64565209768617    6.31534604327012
C        15.71569071375967    2.72566070574307    6.86608997423273
C        14.62816504299282    2.78952559264331    5.97862473654225
C        14.77744422914260    2.80461319184371    4.60188492227974
C        16.08789680270353    2.76886078944520    4.10094430436316
C        17.18521366087394    2.69193634532822    4.92753616475024
H        18.17677336786165    2.64744370951578    4.50307928894247
O        15.50494234432774    2.77199592885872    8.13845389991556
O        13.72757007379557    2.92401617254118    3.74443801532042
C        13.00980794829294    1.72891626709100    3.47117079631616
H        13.64700832472535    1.00210400245072    2.95729885173717
H        12.19393776895351    2.02620699784249    2.81686774002396
H        12.60421542464173    1.28087870436501    4.38124133722701
O        16.80199954729354    4.34798764726437   10.15321740119546
C        17.04205015587980    4.68326714427255   11.50971175536356
H        16.25188474929444    5.35519333330924   11.87337073979874
H        16.97990682657438    3.73980273435463   12.05798779240844
C        18.41214815663981    5.32192517271579   11.70535050477933
H        19.19071578496082    4.66065416531829   11.32951803658180
H        18.59045784656940    5.50212256121469   12.76167126871330
H        18.47375592783801    6.27127686203071   11.17463985580455
O        15.05345258048548    1.98663725090588   10.52187049338511
C        13.97519133278854    1.49009628710626   11.19183638544849
H        13.25689278772651    2.30623808211381   11.38337540454572
H        14.32570655372960    1.09941864742453   12.16591332902453
C        13.32036205494918    0.36959863456859   10.38238033151234
H        12.91163121214530    0.78291547904313    9.46050895737472
H        12.52503385537793   -0.10346899881573   10.95172947312316
H        14.08563490653796   -0.36741203958997   10.12881008250073
O        16.25500590907138    0.41079664810413    8.80337983899579
H        20.79401311565390    2.39964489358329    9.40551156503850
H        16.79158143386850    5.16397032995095    9.63693442405925

