89
CSD_code = ZIXFUH | q = 0 | S = 0 | Stoichiometry = C32H52ClIrOP2 | MND = 5
Ir       -0.91692596798020    1.35033361309236    3.96238914009629
Cl        0.67441147187689    0.36280961840392    2.69363876941529
P        -2.04327882447014    1.90126833619245    1.97115271002076
C        -2.98198181355654    0.41027221178426    1.34346330843542
C        -2.07177064606330   -0.64626851715169    0.72278447507462
C        -3.74147291697462   -0.18866628158511    2.52575533176309
C        -3.41784698919601    3.16591492050862    2.18130165180911
C        -2.84210438086323    4.58070549076793    2.20612767339680
C        -4.60709486177125    3.09368521533753    1.22610098550054
C        -0.98781672003736    2.35557879859897    0.49909855948293
C         0.04423155452754    3.42270238715189    0.85519830484702
C        -1.74150202323446    2.71627609527686   -0.77585180876740
P         0.06722584670045    0.41367472953921    5.90556181172811
C         2.49425600659174   -0.62417762418874    7.08399367004883
C         1.89130609442175   -0.00062077096053    5.82998842968842
C         2.72491640388951    1.19359031044544    5.36969229346137
C        -0.31019662599411    1.29201130060486    7.52372381821653
C        -0.24732063166396    0.47525873798289    8.81301022469128
C         0.53526121894450    2.55566017320346    7.67291640998010
C        -0.70429075870297   -1.26731504838342    6.18178677391193
C        -0.40900118698910   -2.19649473380448    5.00646006389964
C        -2.21448504869497   -1.10880597114546    6.34807584133731
O        -2.51788336330534    1.90691157345417    5.11747493199645
C        -1.73276668418169    2.86379468935232    4.99028270347640
C        -1.55882828007324    4.13398807155105    5.38790530106459
C        -0.45886431010230    4.95402507910203    4.88637436415241
C        -0.54715843467452    6.34830665059593    4.87003207911380
C         0.48316457948528    7.11736132853953    4.36522496922649
C         1.62395387052117    6.51932950235229    3.85522954390748
C         1.71740808778483    5.13719799423660    3.84403733624350
C         0.69093241772486    4.36763952129719    4.35246763768914
C        -2.51009832418016    4.67382441067198    6.37641459816128
C        -3.86013585188312    4.33160090647345    6.34596676872327
C        -4.73401786392732    4.81636494573168    7.30028441869917
C        -4.27693104324439    5.65008733253838    8.30704049457617
C        -2.93349260694687    5.98494084371921    8.35651769957617
C        -2.05661546266212    5.49906552759625    7.40618273018113
H        -3.69595903745994    0.74742450687989    0.58523218572723
H        -2.62638736045754   -1.57460633751587    0.59075302365331
H        -1.70309151685004   -0.33643202511920   -0.25195617504950
H        -1.21680040477424   -0.84922179525227    1.36424981467476
H        -4.41357507598560   -0.97880785653953    2.19306926970760
H        -3.03376004769637   -0.62049359378868    3.23139812672965
H        -4.32607409984986    0.56430364458219    3.05089693713120
H        -3.79244285055187    2.94644464361357    3.18893722767191
H        -3.54859174261282    5.26298782842951    2.67685672577299
H        -1.91480093164387    4.61429979184720    2.77334903937194
H        -2.65268390487630    4.93993794229267    1.19744624823966
H        -5.28057448520974    3.92081116940194    1.44963904184972
H        -4.30190084992259    3.18565723967332    0.18776793423513
H        -5.17034845397990    2.17203682344390    1.34774187940289
H        -0.42948382799134    1.42741221612792    0.32621167300648
H         0.80207770379691    3.47353904889825    0.07506176228242
H        -0.40130367765575    4.40726231099791    0.95871767668450
H         0.53663807370115    3.16786972992181    1.79100562577307
H        -1.03664226877657    2.77817058593611   -1.60447432678536
H        -2.48935204260408    1.96793602154874   -1.02875838859707
H        -2.22719330158324    3.68452651014134   -0.68420960732201
H         3.47806907928178   -1.02760864375400    6.84571304058389
H         2.62588726247908    0.12123053246293    7.86442977582597
H         1.88564249257581   -1.43888340166728    7.46896403160832
H         1.93017533490697   -0.73874188386996    5.01954468941939
H         3.75698886997507    0.87906224305721    5.22065061444388
H         2.35118552532744    1.56823937236438    4.42052870986835
H         2.71733355466503    2.00257230003006    6.09379312157467
H        -1.35163726523879    1.60916820176095    7.38097398112163
H        -0.57730810550259    1.10801135153605    9.63682266820481
H        -0.89826767347542   -0.39367018182518    8.78699393361576
H         0.76293177877445    0.14523654135911    9.03385429562568
H         0.08931022676677    3.20970357033378    8.42099168967467
H         1.54326697038388    2.31135717791007    8.00088097410039
H         0.58996841130771    3.10547578679194    6.73689458336416
H        -0.28353418540104   -1.70550798831893    7.09360957321532
H        -1.00959832281435   -3.10182235214904    5.08595235095477
H        -0.64975452389692   -1.70957154078064    4.06261013104361
H         0.63741128716415   -2.49046617573759    4.97830377930029
H        -2.68543966204446   -2.08485479627280    6.46175116867658
H        -2.46707510166332   -0.50602538919614    7.21660836583198
H        -2.64261510457486   -0.62129967455257    5.47528759035245
H        -1.44005485209006    6.82910256613911    5.24215531842847
H         0.39284774224677    8.19451297495608    4.36350604407092
H         2.42866384045410    7.12406605473508    3.46408236697493
H         2.59667070575258    4.65678237086115    3.43948203397857
H         0.76522738280375    3.28581086662713    4.33772203129747
H        -4.22475409185147    3.67843771804697    5.56724801797699
H        -5.77941378812475    4.54460456429885    7.25763914115596
H        -4.96084016720789    6.03156590683181    9.05115296712939
H        -2.56534899627575    6.62462648571264    9.14643433176513
H        -1.00737445280038    5.75099566787352    7.46187896986188

