103
CSD_code = ZIXGUI | q = 0 | S = 0 | Stoichiometry = C42H57N3Zr | MND = 5
Zr        3.05363281428123    3.04121510661835    4.30135092219899
N         4.93814236466584    2.28204461296414    4.59297819675241
N         3.27754779648597    4.70712957313797    5.44182974345602
C         1.88097515762274    1.82462913750507    5.79199665878242
C         0.66043744883339    1.22154832512047    5.06552776036426
C        -0.50606092626807    2.21270553268139    5.16487093247435
C         0.21806728502725   -0.11127855058597    5.70786230854787
C         1.02381330539859    0.91675172292828    3.61272583382770
C         0.12328828501535    1.05476018070107    2.55911437423511
C         0.47079298083525    0.69851371467711    1.26618208168569
C         1.72372239251959    0.17982287380797    0.99280951673991
C         2.63152355693944    0.02117034617074    2.02663496525146
C         2.29051714636413    0.39373032313847    3.31858588942142
C         5.47267675997116    1.10897547185997    4.04395483961075
C         5.66820363156282   -0.07244146813420    4.80067109020978
C         6.22712678829147   -1.19168529455727    4.20165118002373
C         6.59308700623474   -1.19219082357516    2.87106935773120
C         6.40045895110093   -0.04746401920928    2.11961493376885
C         5.85269821775469    1.09452595525941    2.67953687044238
C         5.76190445894263    2.92714378404764    5.60321298334423
C         4.96829918261538    3.51843126541216    6.78233179593065
C         4.31283479511756    4.85856795416806    6.44071078733493
C         2.75237304668568    5.91614509171037    4.95231584099887
C         1.60550588905881    6.47975086241130    5.54854064677234
C         1.09976781763440    7.67973595357888    5.07356167309163
C         1.70379002233418    8.33834327717333    4.01959478715542
C         2.82470502805867    7.79073057234213    3.42513893410700
C         3.35889612096266    6.59047128104783    3.87010986162487
N         1.47221235988621    4.04407782108231    3.02596717000086
C         0.44374527257651    4.74526047683617    2.55322772117149
C         0.13538476037367    4.81689089762235    1.20908896008253
C         0.94599487226937    4.12418743534835    0.32054711367369
C         2.03699597762526    3.43143155475875    0.81129982002871
C         2.32923677706603    3.38036093941678    2.19090506607178
C         5.24013401933705   -0.17597307905718    6.25035210729527
C         4.27968576549515   -1.35244543476226    6.46362914486507
C         6.44435457277006   -0.33500654230579    7.18357582733285
C         5.76385613937833    2.36836335403267    1.86573953308536
C         7.09430512821734    3.12082228269271    1.99904024348784
C         5.44983367308439    2.12952376630852    0.38867830643166
C         0.95016924622933    5.78152994112272    6.71914273988867
C        -0.56460296902822    5.65518122121437    6.54677787830992
C         1.25558662923904    6.52943594094542    8.02103944757345
C         4.59416132881214    6.01783103230506    3.20456876908035
C         4.44820774247129    5.98033398848071    1.68027380427715
C         5.83578574027902    6.83891188688664    3.57350458935816
H         2.48347726220720    0.99317908778069    6.19396612614479
H         1.51183311482420    2.37677579111444    6.67368578544410
H        -1.42149635169409    1.81263458616968    4.73243508522715
H        -0.24195657378916    3.14299777191084    4.66254685140438
H        -0.71078877617671    2.42914201836817    6.21218226534896
H         1.00837368805308   -0.85611913791781    5.63574787737405
H        -0.66656067969232   -0.50839968084250    5.21131011817531
H        -0.01642193723296    0.04303909832772    6.75958462366627
H        -0.86999784816160    1.43878614446733    2.73304046328374
H        -0.24943197372242    0.82054202427111    0.46986565410780
H         1.98399305307737   -0.11063961082812   -0.01445426060763
H         3.60348196740232   -0.41362934921709    1.84038138905947
H         2.99442276776219    0.18168409154021    4.11675171525200
H         6.38043876071097   -2.08640708156111    4.78715092086085
H         7.03189033832556   -2.07225591946574    2.42439162608067
H         6.70715425435946   -0.04547688980779    1.08465356593591
H         6.34314440774881    3.75862816970928    5.14887463932060
H         6.50583636540459    2.21901203032782    5.99688574963375
H         4.18502825972793    2.81751245892303    7.09566408033290
H         5.65415404493880    3.67562846292506    7.62019348267073
H         3.89338249942497    5.28233252701495    7.37478731890649
H         5.10242984336021    5.56320852263988    6.11095597356835
H         0.22699964908213    8.11624435005197    5.53711746445795
H         1.30504562922991    9.27752480313717    3.66426957472570
H         3.29296085180031    8.31709095244263    2.60608033466637
H        -0.15651661850927    5.28162233538685    3.28302989346247
H        -0.71134591452609    5.39346237103808    0.86715153326685
H         0.72948929442748    4.14040464681529   -0.74040697652054
H         2.68368882454257    2.91072347118461    0.11593492640209
H         4.70822954834051    0.74387675296982    6.51323219945843
H         3.46690735644068   -1.33074720216843    5.74062470609886
H         3.85422766741559   -1.30846005947538    7.46472214510066
H         4.79503770256615   -2.30394894837859    6.35951852057116
H         7.14294728393539    0.49103492889274    7.07046039338387
H         6.97758028673026   -1.25727995852032    6.96404627252835
H         6.11546657125976   -0.36676994373503    8.22053608315126
H         4.95215983195430    2.98608841460587    2.29381927443147
H         7.28702770006822    3.37145490626997    3.03914593408721
H         7.08188960315621    4.03825869113510    1.41346173749144
H         7.91320555674257    2.49833566934897    1.64154571243968
H         4.59936990964645    1.46032320987837    0.28385926450429
H         6.30126009283061    1.69918250928915   -0.13453676136353
H         5.21029013603899    3.07558955635135   -0.09323801465140
H         1.38361430750168    4.77201407838085    6.76974052881216
H        -0.80714932083629    5.21895851727953    5.58167435360163
H        -1.05082268303163    6.62554465643610    6.61791735380341
H        -0.97695213610514    5.01763936612376    7.32643066525469
H         2.32835810650168    6.63359173825748    8.16540202466419
H         0.84091158749817    5.99441447257506    8.87329373934105
H         0.82072136734971    7.52681689788884    7.99541287361094
H         4.72195094569072    4.97900893109478    3.57179563525642
H         3.53450403788964    5.46351032329981    1.39353386399995
H         5.29472570019596    5.46238980347808    1.23515617366955
H         4.41742132869579    6.98575999200112    1.26616806009109
H         5.96168509712219    6.89572381290442    4.65245362719676
H         5.74317837814912    7.85457787927825    3.19345880752671
H         6.72917147329521    6.38966271340192    3.14384401638279

