61
CSD_code = ZIXHAP | q = 0 | S = 0 | Stoichiometry = C24H36Ti | MND = 12
Ti        9.04006148233388    1.54781970948074   11.88295591373427
C        10.77899673317268    1.90907939572965   10.59991441199210
C        11.24892575838634    2.25295287659763   11.90456242653878
C        11.54735392237416    1.04123111491814   12.59050814755342
C        11.20355664812211   -0.03597414362204   11.75576574495748
C        10.68647379492380    0.48754262052918   10.54036577162955
C         7.56674035695472    2.08902789408218   13.61785695411573
C         8.61944599283847    1.30209302918724   14.15882143163771
C         8.54984299171838    0.01202570618556   13.57464465231504
C         7.48781660854591    0.01997570179137   12.62839676435329
C         6.84739641438054    1.28829290604271   12.69340422770389
C        10.24265116971305    2.85750251063475    9.56910700329665
C        11.76033267478232    3.59293684225733   12.36423679791977
C        12.37552991981097    0.96246266044530   13.83859706997584
C        11.59349551028274   -1.47342512013005   11.92947428580105
C        10.50011964446262   -0.36982093491197    9.31778006787457
C         7.13758126017807    3.41175207094575   14.18303275762425
C         9.42204472008006    1.72237974310564   15.35476939542980
C         9.19476089510622   -1.22627772283620   14.12152411983794
C         7.00679337855146   -1.17141062365687   11.85001284937682
C         5.50657845468487    1.63953513329241   12.11802199055105
C         8.64936178716066    3.51839953625840   11.35989407170892
C         8.07262502175478    3.98613058481118    8.89338616658075
C         8.09528513634748    1.67576419516405   10.03624377751002
C         8.74855658529684    3.05443442046520    9.90670763710441
H        10.35584132755003    2.44771632006501    8.56010883513905
H        10.76893159024410    3.81747446124978    9.59837260264840
H        12.82108968524245    3.51032951352947   12.61308466563949
H        11.66214078663509    4.34121330470718   11.57985831923518
H        11.23727023085609    3.95331220592423   13.25374072586634
H        13.43544688815953    0.96393025640403   13.56765488088165
H        12.19983557586952    1.81517563160836   14.49055719036503
H        12.18654495461381    0.04839793131033   14.39882319445328
H        12.48780183416295   -1.67601062421645   11.33298106594444
H        11.82970122111983   -1.71004390231046   12.96340815994797
H        10.81168317075491   -2.14834469689470   11.58181866339942
H        11.40347342369008   -0.96287930702040    9.15418672707998
H         9.66439685762315   -1.06477980114490    9.42634766484303
H        10.33640693790461    0.23436677192479    8.42773615596347
H         6.75228927156604    3.26679838153820   15.19608520351944
H         7.97172567861883    4.11190700241831   14.23962425843218
H         6.34724299437947    3.85937378023175   13.58524814134145
H         8.75627446316192    1.85412769914673   16.21220113534329
H        10.16431217389426    0.97490067206463   15.62044406395138
H         9.92522659993111    2.67591783806852   15.18236921591919
H         8.57424278397808   -1.61500469890415   14.93479646095621
H         9.27623529886036   -2.00693605667213   13.36939746872132
H        10.18240249876771   -1.02593029730039   14.52864581917409
H         6.26695229812392   -1.73183992267346   12.42807856477270
H         6.54413128614675   -0.86412634063654   10.91197612976730
H         7.83221782490807   -1.84536152626318   11.61852782432163
H         4.75783788222199    1.61581986348365   12.91404576221795
H         5.49868809957507    2.63992865312110   11.68489939046690
H         5.20396094756893    0.92611981737892   11.35468359139840
H         9.36037243760027    4.31178695403071   11.61156936283032
H         7.63586695717374    3.88533012175599   11.54915536400415
H         8.13439916096629    3.56830894125819    7.88893795411292
H         7.02161935069017    4.12384643743949    9.14274854370626
H         8.55524999294048    4.96312966747698    8.89094835327480
H         7.00830461152582    1.79132138666048   10.03736023688300
H         8.36595604104123    0.99589345454305    9.22389386634261

