42
CSD_code = ZIXJAR | q = 1 | S = 0 | Stoichiometry = C17H20FeNO2Si(1+) | MND = 8
Fe        3.77246537493863    2.88157659053224    2.06364579308034
Si        2.55165217589890    2.35196376664324    3.85101838137641
O         3.29720546196890    5.71379837281159    2.40527759638967
O         6.00527147588400    3.22543830669326    3.86412354519040
N         0.58075987454633    2.53783000245711    3.60362025941461
C         3.44115835059700    4.59064304508307    2.27047043651238
C         5.11137223422259    3.07492838250572    3.17414911568047
C         2.73401048541382    0.54589332849098    4.47925493144270
C         2.31623148778207    3.46238830880847    5.36973328394974
C         0.98263717781586    3.51041983748056    5.77813877010276
C         0.59788293405525    4.27122733582754    6.86608015184255
C         1.55668297774127    4.99477173571874    7.55873118642587
C         2.88372832400490    4.95796563595016    7.16093050236147
C         3.26417747852042    4.19628086154117    6.06858255171686
C         0.03986563867459    2.67189834049701    4.96428631338846
C         0.32184066903077    3.77321649233098    2.86710970498774
C        -0.03377177230716    1.41798401172515    2.90511992413748
C         3.05550464211764    1.10844216970564    0.93203575038310
C         4.46198823281833    1.06113514269662    1.06491573744298
C         5.00539735426149    2.18628665950214    0.38784207536034
C         3.93429643959497    2.94199403669039   -0.12956326290160
C         2.72295915399448    2.29439086149274    0.22982413970594
H         2.53317741806640   -0.20025606566663    3.71755273611578
H         2.10371404386562    0.33498683211460    5.33937140068600
H         3.76098599304441    0.40015943356542    4.79940438626694
H        -0.43641273107408    4.30024458680203    7.17444951170909
H         1.26516621601701    5.59105506191737    8.40890602997722
H         3.62293638956676    5.52601850504113    7.70333577531225
H         4.29717906913792    4.16957033969973    5.75893013545883
H        -0.03225734581024    1.67594820661854    5.40977813748329
H        -0.96542680942948    3.10237909210653    4.93974948352689
H        -0.74988301461531    3.91966718798167    2.72263161888626
H         0.71871559491151    4.61946540457000    3.42228897135600
H         0.81098233446117    3.73439210891445    1.89637361408137
H         0.19227192412377    0.48826685648411    3.42022912701721
H         0.35254043209115    1.36628742256872    1.89052133087901
H        -1.11835148792646    1.53416895024599    2.85709581114915
H         2.37677045758711    0.31828873695445    1.20479696080269
H         5.02825835727999    0.23229877933369    1.45555305144398
H         6.05182544899063    2.36629202794404    0.20712368792997
H         4.01892640575406    3.80550109389202   -0.76788428006658
H         1.74906513236564    2.54859221373059   -0.15673437800648

