70
CSD_code = ZIXKUM | q = 0 | S = 0 | Stoichiometry = C36H23AuF5PS4 | MND = 4
Au       13.38125474857766    5.44828432649062    2.97362134044618
P         9.62945688142306    7.88268479688962    3.79969037849995
S        14.36505708528537    7.03528045948347    4.34770906580868
S        13.65680000708008    3.84192880211140    4.62242804398264
S        12.82392583395100    6.96177312460821    1.22537929396148
S        11.64067163550665    7.56761664200300    4.29102132046189
C        14.58727330391231    6.14630901305437    5.85188882903475
C        14.29034815611326    4.79287651830368    5.96172383627750
C        14.49653611602514    4.14429673425417    7.17550594171471
C        14.98901321078458    4.83692891948710    8.26271092253565
C        15.28097606571261    6.18891387018854    8.15198302926374
C        15.08103727356364    6.83914480340164    6.95118519603574
C        12.43422208631230    4.08604658386250    1.83906899177525
C        11.06704328877370    3.93262353074898    1.97764660085148
C        10.31606350636405    3.09713648305235    1.16282102885541
C        10.95765319891885    2.36475929431254    0.17197586979895
C        12.33420326053246    2.48325392579472    0.01597744583466
C        13.04955419270426    3.34346659294271    0.84526749150203
F        10.42877028517418    4.63474633641919    2.93621765367182
F         8.98447438945711    3.01002416680098    1.31767357243090
F        10.25309013481304    1.55821042720126   -0.63018650238358
F        12.95548875629623    1.78027861557938   -0.93690420413950
F        14.36993538449961    3.45267694743856    0.66336969418129
C        12.78144734137357    8.55518041034130    1.94467263176894
C        12.25122837645150    8.85119636216592    3.20062532905485
C        12.23645667044306   10.15196854868332    3.67974419352026
C        12.70234510413181   11.18868536915838    2.89391578864120
C        13.20436367023160   10.91437699937674    1.63002024892729
C        13.25008674200610    9.61671264033075    1.16785648905259
C         9.36010390543460    7.80205159621766    2.01674207234277
C         8.84920772924340    6.64671029766479    1.43447054928002
C         8.78726424627897    6.55075338973379    0.05675155580451
C         9.23264096022510    7.59633541549019   -0.73576033569548
C         9.72157186600986    8.75473452566154   -0.15298916132231
C         9.78925619806794    8.86452632739683    1.22268630946646
C         8.99275450614543    9.45718589408398    4.43770466571191
C         9.34675289328352    9.79238337669695    5.74222465699519
C         8.87740960560525   10.96569522363434    6.30015086269537
C         8.05603064647001   11.80239533411407    5.55936155149082
C         7.69690153711764   11.46164494316670    4.26530527023786
C         8.16022291973122   10.28754178733497    3.69781234711840
C         8.69596016815154    6.59306779769585    4.64617307875668
C         7.31253669799357    6.57572136730871    4.48425872783466
C         6.56688636388734    5.59924584444174    5.11593849143527
C         7.19678775402191    4.65079817895566    5.90842816921807
C         8.57129405686011    4.68006355478761    6.07735779226394
C         9.32870109802074    5.65299100877545    5.44941869671512
H        14.26538392160163    3.09223819422430    7.24056707050638
H        15.14688408272476    4.32098936974329    9.19792542330075
H        15.66655395158860    6.73478448937700    8.99985432242544
H        15.30517436173047    7.88869239054717    6.83757925983396
H        11.86125952662374   10.34268174911140    4.67421253224760
H        12.68115919862674   12.19951846883922    3.27086923001158
H        13.57695333699729   11.71561077976792    1.00974954120131
H        13.65436993953329    9.38649790664508    0.19486628777805
H         8.50590843428813    5.83368780234821    2.05657481149866
H         8.39801540269093    5.65189340506670   -0.39726459595981
H         9.19948940906936    7.50861768706739   -1.81094934851540
H        10.06507212783537    9.57108608346904   -0.76985979061509
H        10.17990370870604    9.76402105095531    1.67920776944291
H         9.99275469297196    9.12893839527314    6.30330673351939
H         9.15225564152275   11.23021344872500    7.30996781874075
H         7.69344485537676   12.72180256415102    5.99325411702211
H         7.05175244626764   12.11209067717414    3.69411685620043
H         7.87490635677939   10.01644715378582    2.69141962163734
H         6.83506311860268    7.32130756594086    3.86173397554254
H         5.49520797056274    5.57384900136901    4.98795789997569
H         6.61113589011197    3.88504526373491    6.39422543478297
H         9.05939574429608    3.94075171250036    6.69350273458375
H        10.40209602223003    5.67130773336071    5.56733747286721

