31
CSD_code = ZIXMOI | q = 1 | S = 0 | Stoichiometry = C7H17CoN3O2S(1+) | MND = 6
Co        4.59667662811953    8.41440001255458    2.61308864546791
S         4.33143368482003    7.84740628395057    4.78100744883415
O         6.40188960670147    8.15938128007461    2.85792378592114
O         8.18542260127203    7.78432251312607    4.10088022741462
N         4.78365207558208    7.91946561323041    0.68090896694637
N         2.72555960425542    8.88620747498831    2.10907327177211
N         4.88016324054637   10.52428509952031    2.54804338601743
C         3.44923255066276    7.57849094098331    0.17232833646945
C         2.49592808674539    8.66530150237205    0.66281315818982
C         2.46425006370567   10.27918999254405    2.51800782803501
C         3.63774340386357   11.16541742226004    2.09509158222445
C         6.99698088213709    7.89070378827839    3.95632882936217
C         6.07544325861654    7.69334474642807    5.20378181013321
C         4.20524463375835    6.71721235873246    3.45737328581661
H         5.42821007600045    7.13701091066275    0.57433676809236
H         5.18348821826118    8.68558434563979    0.13896726380332
H         2.06387175251826    8.29825618567771    2.61332592806976
H         5.67785503511399   10.85137798800763    2.00800963157493
H         5.07172851858960   10.80137461759151    3.51003151365181
H         3.15907886255284    6.60904195212210    0.58118767100104
H         3.42597683622973    7.51651281354390   -0.92052087946225
H         2.71288030709985    9.59078040149026    0.12823545721010
H         1.45730148445158    8.39176780183931    0.46114531779304
H         2.37551874471410   10.29964621157034    3.60640419288032
H         1.52974906430218   10.65124042925735    2.08574536575384
H         3.67060610961373   11.26329239147585    1.00842041998904
H         3.50727978289033   12.16747806889278    2.51524000585024
H         6.24995711635113    6.70907490141139    5.63870256168880
H         6.31259536760402    8.44893446956355    5.95283766392627
H         4.96643642079080    5.94347307252173    3.46662961124940
H         3.20354598212992    6.30922440968887    3.35605094432324

