55
CSD_code = ZIXQAB | q = 0 | S = 0 | Stoichiometry = C19H22HgN2O8S3 | MND = 8
Hg        2.69140519900052    4.56712752635657   12.75601101338429
S         0.30545533000476    5.07281311556314   14.04688077707180
S         1.34109989719936    7.12344269586267   11.56615077173064
S         4.55419292389573    6.03652846332015   11.36743428230873
O         2.21053444991831    4.06487496202636    9.08018527112374
O         0.69297151757195    3.73440485347816   10.77061557092677
O         3.40702776033937    2.99613570768697   11.64189417776337
O         1.90158165515727    2.58204412320242   13.07899007577919
O         2.65688088885968    1.02529152994539   11.85075765639009
O         3.35866134066460    6.13377113940688   14.24947307244749
O         4.74602168903620    5.54567140666079   15.74753149904021
O         4.05873544811485    4.13376023977339   14.30630860174356
N         2.66211504372011    2.16619230001828   12.20039187202443
N         4.07735081655826    5.27196938475918   14.80123217837556
C         1.25756482483724    3.18792999008148    9.60669507350586
H         0.46647668372814    3.00910808392849    8.86118246369706
H         1.70461729420119    2.23271416851636    9.89895970387074
C        -0.35653055958663    4.61380955978630   10.60530908932669
C        -0.59384702667440    5.29029014747541    9.41644679725358
H         0.09138027666057    5.18569519068759    8.59064875133454
C        -1.68788861311724    6.12913083332355    9.29661547929500
H        -1.85629784902963    6.65079686666801    8.36716131363112
C        -2.55937467527025    6.29399051752523   10.35672482446641
H        -3.42322434611068    6.93321878863731   10.26094862952426
C        -2.30919408754032    5.64167699862759   11.55063835889852
H        -2.99314035569631    5.76049304817868   12.37967719132109
C        -1.20786923872567    4.80518837557569   11.70255553347286
C        -0.93850755216480    4.16594746730893   13.01691175195530
H        -0.48711638409086    3.17988510671991   12.91742370935863
H        -1.83964788813630    4.11102350739002   13.62640469652299
C        -0.18952124028894    6.83277696567567   13.83652066603133
H        -1.07324820220084    6.84511747750444   13.20010469645702
H        -0.44082864263490    7.19377433360031   14.83395529976459
C         0.90535263791135    7.69815724822071   13.24952869884733
H         1.80340562077928    7.65611167362928   13.86303246476163
H         0.55222171971040    8.72688399747392   13.15612994599986
C         2.74408966735578    8.22535057941701   11.18112772751367
H         2.75490873801767    8.28384062449043   10.09283726253173
H         2.49775316856837    9.20959400352461   11.58033993090349
C         4.09129123211547    7.77766390435437   11.71664300036152
H         4.12242683119285    7.83514364445464   12.80444041000589
H         4.87679388153643    8.40890804775555   11.29900804303878
C         4.23342021999057    5.92780525853268    9.55218917911717
H         3.18662721410131    6.16638820319402    9.37965124039892
H         4.89130439493604    6.66010207491708    9.08431866467277
C         4.53778814769106    4.54008255952562    9.09363958147524
C         5.84932778089674    4.13606340220604    8.88970753596765
H         6.64555847269399    4.84516362628453    9.06239210612818
C         6.14171181272521    2.84566200248638    8.48990067951341
H         7.16726409617550    2.54317642091598    8.34605559891220
C         5.11251629808429    1.94638236949041    8.27822862321317
H         5.32743978407285    0.93757957257370    7.96110231106509
C         3.79759504952918    2.33055709858811    8.47084416423161
H         3.00405964060555    1.62104127050106    8.29193462438268
C         3.50520721309569    3.61714754218360    8.90110735715661

