43
CSD_code = ZIXVAD | q = 0 | S = 0 | Stoichiometry = C22H15FeNO4 | MND = 7
Fe       -3.59474557155177   10.86171023980793   12.23908776475189
C        -5.13523947378184   10.96788334858615   13.09248344114764
O        -6.13343742840075   10.96822965630170   13.65221296181420
C        -4.48156736072170   10.29656655867082   10.82300818337304
O        -5.06733637079886    9.87553867725598    9.93438836048591
C        -2.97880071604322    9.31069005316537   12.87585899138825
O        -2.59657098286575    8.31487935443391   13.28352911213918
C        -2.44014874446723   11.98072859253613   13.64522375957440
C        -2.86679309508791   12.86807488373937   12.60399718834092
C        -2.49347362756440   12.48183327266211   11.31102487975977
C        -1.73688509311273   11.26722393412021   11.24136000794576
C        -0.55274134283400   11.14965880123751   12.18946197666035
C        -0.97221518692141   11.56448667804959   13.62145420135188
N        -0.17756025344924   12.70464688129548   14.00227118197518
C         0.59515386184847   13.04251055723790   13.03565125608454
C         0.50137808716480   12.17102555609054   11.86657531221783
C         1.25343701926304   12.37231615138777   10.78286557459335
C         2.18573125120683   13.50499601287040   10.73296338799621
O         2.84767090752841   13.73341534998937    9.73245419017051
C         2.27900568833737   14.37175755887762   11.93391097736682
C         3.23824645807343   15.50978104049818   11.80375954215420
C         1.52524034104767   14.14963708617901   13.03935078527475
C         1.59297434318746   14.96487463704636   14.26366485427359
C         0.42802931031212   15.49483393598285   14.81169310937702
C         0.48192017689804   16.25322524190407   15.96586771874603
C         1.69448238680017   16.48000496833512   16.59590291987974
C         2.85533721334899   15.94196211150306   16.06648282151772
C         2.80718909267934   15.19166826685706   14.90604698503470
H        -2.76911419456853   12.22945632646223   14.65141989154880
H        -3.47120014749886   13.74794141903654   12.79244003578409
H        -2.79549354118797   13.03789664966842   10.43076815755518
H        -1.50332152902013   10.90648285269839   10.24153939998216
H        -0.14231169719736   10.13739791996242   12.15667808985021
H        -0.80416064323920   10.77826809307975   14.36424583958684
H         1.20734696887295   11.74453022601320    9.90459597501705
H         4.25797022233633   15.15938170821077   11.96512679264365
H         3.02025581698912   16.30136019561631   12.51545199868874
H         3.19521640200278   15.89671740968242   10.78692778877296
H        -0.51656666364199   15.31628948843435   14.32147036305972
H        -0.42620460686860   16.66763778988789   16.37865664969946
H         1.73417517168850   17.06985000580512   17.49967203002760
H         3.80215268713296   16.10628716035450   16.55982379576972
H         3.71087486410537   14.75624334846638   14.50673174661823

