45
CSD_code = ZIXVOU | q = 0 | S = 0 | Stoichiometry = C14H16Cl4N6S4Zn | MND = 4
Zn       -0.80852896276245   11.82133948183366    4.80735427930696
S         0.95065032626996   10.06841240052881    5.46561765177513
Cl        0.03203105135144   12.82951244519088    2.97820518223486
S         1.69727373866639    7.02416982282150   -0.10907482215704
Cl        2.30874177416661    5.03435288496220   -2.25627704518731
C         0.51530850384811    9.38732525865101    0.57714178451890
N         0.79272679712174    9.77614712285419    2.82508265614966
H         0.44166115176652   10.74482818185915    2.76529877914045
N         0.97725968078970    9.01939523546817    1.71951627229692
C         0.79443033871786    8.46618878982193   -0.49257701898373
C         1.18929349458062    9.27270743894913    3.99838876310137
N         1.77410266524224    8.07284324520560    3.99052373365973
H         1.93429594840728    7.63649086295257    3.09382452767864
H         2.09426495818171    7.66438654119211    4.84961858528510
C         0.46451953931861    8.50210825621276   -1.82209085054202
H        -0.09044795659792    9.29837713665342   -2.28285416955203
C         0.92155480015319    7.38597409181335   -2.54438183588818
H         0.75768346567874    7.23943988241804   -3.59591437311019
C         1.60199908058042    6.50384316875342   -1.75783834205391
C        -0.26850086966475   10.63528923749291    0.33285035673347
H        -1.17409343914088   10.61991053869295    0.94092128740200
H        -0.54596176402087   10.73561998405977   -0.70937680840400
H         0.30352518771641   11.51251873125162    0.63464557076777
S        -2.56850763576643   10.06866144279588    4.14872296687333
Cl       -1.64958892614197   12.82958136339420    6.63621741215815
S        -3.31487508673752    7.02418491979501    9.72334026263377
Cl       -3.92615871841038    5.03421125210618   11.87045580108593
C        -2.13302540169933    9.38742730980450    9.03721217996330
N        -2.41050023101960    9.77634004337049    6.78927781440384
H        -2.05940875321228   10.74501300584771    6.84908026399394
N        -2.59500145923970    9.01953809997928    7.89482567068330
C        -2.41213145717661    8.46626111063216   10.10690506779208
C        -2.80709988690247    9.27294595960980    5.61596533509297
N        -3.39180763697278    8.07303848397728    5.62381140386081
H        -3.55192578991600    7.63664461509148    6.52049762864318
H        -3.71192201968924    7.66455540640800    4.76470569305797
C        -2.08222974596285    8.50214460238941   11.43642153817667
H        -1.52727526894172    9.29840116818850   11.89722047606951
C        -2.53912784966286    7.38591327112606   12.15865147380930
H        -2.37520477440186    7.23931206147534   13.21016706381271
C        -3.21954889376492    6.50379043509289   11.37208385334532
C        -1.34934519425314   10.63545794797191    9.28155873127413
H        -0.44376714717309   10.62018174069004    8.67347683171946
H        -1.07188504918636   10.73576508371091   10.32379025218420
H        -1.92145258373292   11.51264993798427    8.97980811569068

