59
CSD_code = ZIXXUB | q = 0 | S = 0 | Stoichiometry = C20H35CoOP2 | MND = 7
Co        3.70735584935100    3.90765756838309    2.88503222538705
P         1.82172832868320    4.82072523904785    3.79985715499854
P         2.80397261760002    2.49932751523440    1.36727138571195
O         3.89425104927976    5.49531678124594    1.63592932837537
C         1.90288498470629    5.72225983092920    5.40478324561678
H         2.51578579838622    6.61363743835797    5.30033771340947
H         2.35794199730212    5.06886739334940    6.14654083792585
H         0.90445850077537    6.00672358332296    5.73566673418244
C         0.37651719762837    3.74861262156566    4.19992141382238
H         0.63177332981703    3.09051153219054    5.02661297288867
H         0.12197206295727    3.14004298337495    3.33527093911469
H        -0.48043066054201    4.36110809901265    4.47745902600242
C         0.95811282136928    6.06840967858167    2.75793004440448
H         0.31108905232512    6.70243165872500    3.36283950891756
H         0.36477333940268    5.54810799257862    2.00943816560898
H         1.69428661409720    6.67399089320936    2.23575406482524
C         1.49808347951119    3.21543129407034    0.28826303385553
H         1.26612072108247    2.54549452857638   -0.53893604718131
H         1.86389497258934    4.16540435540076   -0.09485689886168
H         0.59813982216585    3.39708160410415    0.87160593323882
C         3.92867407839383    1.86118812872383    0.06535325655375
H         4.73998619883578    1.30973169191221    0.53599930658060
H         4.34365070255410    2.70254562797389   -0.48511605952932
H         3.38901140112025    1.20881168510722   -0.62047217357832
C         2.00483586631397    0.91423567052466    1.84904072659283
H         1.59782599968827    0.40861410641628    0.97480945636947
H         1.20950870541514    1.09944513061173    2.56616986392176
H         2.75247703115918    0.28246330939001    2.32204500521633
C         3.74019545881921    2.55753515617634    4.32341055977435
H         4.12903025849052    2.98656583896448    5.24995842719143
H         4.37257200935318    1.71131910792110    4.05479511137757
H         2.75026845622368    2.15565710496841    4.54568539073247
C         4.60031457754412    5.79664475878206    2.65037631841075
C         4.54934235915181    7.21329815547903    3.19137926691223
H         3.51111250622206    7.54264582040706    3.27914961240324
H         5.01248709417591    7.83450135146259    2.41583952678073
C         5.29602179600166    7.39850846980221    4.50669873860161
H         5.43943309124553    8.46515474134241    4.69814104237448
H         4.71166866572597    6.98562375965119    5.33225884687378
C         6.63541793085155    6.67611971565083    4.45062522669133
H         7.22610619815722    6.90127568877350    5.34152350357834
H         7.19829989271883    7.01423581762312    3.57725397583534
C         6.39537122471227    5.17094952646292    4.35939223560312
H         7.34886471862698    4.64764167807974    4.25245924483580
H         5.93436394588807    4.83292962200922    5.29228863552708
C         5.52381799414179    4.84383124314626    3.17437083543935
C         5.67723302754184    3.69217809738042    2.33937204966881
H         5.56232123399246    3.91333273043365    1.27575354192638
C         6.62553865016973    2.61200974010381    2.57101296828089
C         7.24588592574312    2.01939354643238    1.46354961406814
H         7.01366546964370    2.38397867382044    0.47198931798014
C         8.15995330219967    0.99624779387235    1.61020174518546
H         8.62542385736244    0.56146466968269    0.73640258032116
C         8.48350819553563    0.52686141065026    2.87320300791247
H         9.19743045261009   -0.27536455838581    2.99114828157349
C         7.87990128574869    1.09717802146186    3.98132607072199
H         8.12376343067551    0.73542585197545    4.97068576532691
C         6.96569013866453    2.12323671158715    3.83678345090310
H         6.49511499008674    2.53334181237564    4.71391494280604

