93
CSD_code = ZIYMIG | q = 0 | S = 0 | Stoichiometry = C48H36N2O4P2Ru | MND = 6
Ru        6.33473878764640   10.36441963454025   21.81314065262816
P         5.37357132047409   10.25580956100070   19.70791262325346
P         7.52944654402743    9.96035055024168   23.75713273985387
O         4.91219888078044    8.73699481668257   22.24709413261964
O         2.83878150189115    8.50334046527500   23.01988608004997
O         8.29675248045718    9.94044895675211   20.91742597303514
O        10.11522870763182   11.05701973138314   20.28540648877514
N         4.89611916641702   11.30040896633971   22.60040436286067
N         7.05441928634048   12.09975635111822   21.62071288200518
C         3.55890445226327   10.15954025260962   19.76388325432550
C         2.87380369531697    8.98844291022408   19.46169145972363
H         3.41517325100698    8.12782704472838   19.09676818070979
C         1.50427012540182    8.92164838587374   19.64263405000446
H         0.97990543325584    8.00560711075654   19.41642990712641
C         0.80837147342349   10.01613474195407   20.12615606029224
H        -0.25905279432012    9.95591597124337   20.27607358834069
C         1.48434846188628   11.18593008073550   20.43065544455197
H         0.94732669445089   12.04075882591344   20.81645705601732
C         2.85373531169871   11.25558587291690   20.26037620786246
H         3.38387177556464   12.16690284980574   20.51472549579226
C         5.87766254395667    8.76893210609881   18.79879932459676
C         6.02660625969574    7.59406154576640   19.53310323071964
H         5.81176565713688    7.60426283670160   20.59447697545314
C         6.41659670173424    6.42919986340966   18.89865168428186
H         6.53225358336494    5.51922128086693   19.46899492840191
C         6.65850863448623    6.42918212056046   17.53410928123498
H         6.97010173042698    5.52084809613632   17.03935768321613
C         6.49879067417347    7.59391084057591   16.80140305075855
H         6.68097667610186    7.59221686159550   15.73649533417613
C         6.10833391726628    8.76470313284964   17.42700608440620
H         5.98609920690377    9.67111382593636   16.85050096090713
C         5.75588648098079   11.60554499261326   18.54643071318612
C         7.10610982318476   11.77080796080247   18.23503566021638
H         7.82935651422572   11.06112837042385   18.61254208653087
C         7.51618623326463   12.81358542704765   17.42755484659593
H         8.56490439311746   12.93191586609552   17.20027952908039
C         6.58171293796583   13.70006774306474   16.91528682513820
H         6.89963315690642   14.52012758528036   16.28860684186590
C         5.23759725688333   13.52479905514190   17.19759245388513
H         4.50518787645662   14.20148744767540   16.78153960879266
C         4.82127889534142   12.48395874828341   18.01066720650200
H         3.76828215892427   12.34841820792280   18.21090392730928
C         8.37577549753377    8.35729742087192   23.78895666863914
C         8.23957339253410    7.49295311919416   22.71073536598705
H         7.65513099473830    7.80697555011243   21.85490201349439
C         8.87112576519625    6.26158907448808   22.73702283709116
H         8.77386014899225    5.58945618009774   21.89740213881382
C         9.63039239983701    5.89386945312535   23.83510984952480
H        10.12424319044889    4.93323330697763   23.85410568678162
C         9.76160945239782    6.75589609876782   24.91400141340962
H        10.35456108843481    6.46570894737038   25.76928132119134
C         9.13401413080881    7.98653543096251   24.89717091373067
H         9.22973557016034    8.66376053739152   25.73598236372880
C         6.70606619755786    9.91619963216162   25.38380934388669
C         5.61701041065612    9.05197061324914   25.47813533544966
H         5.32761203715058    8.46832753362392   24.61508925200878
C         4.92131957303750    8.93099067432274   26.66551408123357
H         4.07294766555046    8.26598446191073   26.72288288728492
C         5.31561519203280    9.66308627165909   27.77432203834256
H         4.77312315491269    9.57337002206616   28.70394208747534
C         6.41418828953160   10.50230398145497   27.69338745348548
H         6.73455706313599   11.05934173553445   28.56223258265287
C         7.11135102159116   10.63172840034784   26.50440848313115
H         7.97414555905036   11.28107009395626   26.45679140709550
C         8.85845314355205   11.18386755535172   23.94314413640101
C        10.16501116368615   10.90390816174084   23.55992322504104
H        10.42979038556906    9.90537574444759   23.24373487459847
C        11.11641916350942   11.90891367403606   23.56582559587651
H        12.12655719525171   11.68796191959882   23.25722468731401
C        10.77070756426967   13.19488516980867   23.94418008049070
H        11.51379414711237   13.97843680756615   23.94022077640663
C         9.46673592479228   13.48304181254497   24.31712415327310
H         9.19268473719958   14.48855398101946   24.60341524743261
C         8.51191271438328   12.48521097353321   24.30871571145027
H         7.48546885754960   12.70906803444416   24.57900110807374
C         3.80557487445871   10.68043011317414   23.04106731792635
C         2.77730619505175   11.38495439643116   23.64199051817708
H         1.90962545097911   10.84878557744641   23.99018684971081
C         2.90131731876812   12.76492311616299   23.76248663649528
H         2.12056033391027   13.34269467881832   24.23268669743724
C         4.02726904290931   13.40454391070709   23.26345520266921
H         4.12634344824135   14.47681511242953   23.33107264688344
C         5.03378443411752   12.64814357101271   22.66973868371407
C         6.28316083440570   13.11614971803438   22.07542059856505
C         6.73867161459879   14.42539589685544   21.94743095485848
H         6.13039918921748   15.24581399338530   22.29514480601367
C         7.98008598289840   14.65850254958645   21.37500102044233
H         8.34038971501578   15.66996680757700   21.26778762239606
C         8.76164673991617   13.58811096323267   20.95390586646799
H         9.74185867800125   13.72025898290402   20.52596567498861
C         8.25710024722079   12.30808460500434   21.09612717736863
C         8.98015439534001   10.99922388056594   20.72609317307852
C         3.82461284438291    9.16879275776446   22.75633855486577

