111
CSD_code = ZIYPAA | q = 0 | S = 0 | Stoichiometry = C37H47B20IrN2O2S2 | MND = 6
Ir        9.83874684111283    3.66621685986311    3.79130855112945
N        11.43951703978174    4.87915834628687    3.85359681705411
N         8.25339135427295    2.43912558396942    3.79119230235522
O        10.80274549813882    2.65962349450055    5.48472179755985
O         8.73572214522892    4.75859529874962    5.32766120877819
S        13.41200082158168    2.43982892024401    1.37989889874475
S         6.44123378074800    4.73511701906750    1.07332823169535
C        12.79671058493267    7.75146099502183    5.84625304535228
C        12.72269734327756    6.61812763159160    4.88998090891814
C        11.53588314592789    5.93516512320074    4.64859243029443
H        10.61078796950226    6.24811656103857    5.10641005438775
C        12.53908756712224    4.43449482564645    3.19835073408567
C        13.75990690608861    5.09602480789043    3.33726094320953
H        14.61708950968377    4.73651920305199    2.79007727064159
C        13.85300843916597    6.17560423400261    4.18654833823698
H        14.79887710158904    6.67810532933321    4.31162384544515
C        12.27214546103218    3.27362176871459    2.41388477065263
C        11.01145843927207    2.72415908662358    2.44799027104096
C        10.94411936047386    1.57332496149018    1.60547412245977
C        12.17509330519581    1.29092718413744    0.96727603644855
C        12.32521906402032    0.20627345014368    0.11650488454878
H        13.27617040729384    0.01496747832380   -0.35636556759389
C        11.23887039664358   -0.61321836159026   -0.10746445189355
H        11.33680864003327   -1.46424194118819   -0.76441276045319
C        10.01206001105438   -0.34864131034139    0.50208610257761
H         9.17324767433263   -0.99955186058741    0.30312649259468
C         9.86005329423299    0.72927438609450    1.34351711459549
H         8.90731474930646    0.94272146894736    1.80142917257298
C        12.65513514195198    7.43136232695314    7.41951110838960
C        12.41948390500591    5.99191250421194    7.82108538529100
H        13.08488837089519    5.30964320736847    7.28934375331063
H        11.39565352232757    5.67295698589450    7.62269477118981
H        12.60372642548146    5.87042039390576    8.88761374797392
C         6.90208916168547   -0.56257179839174    5.58086252349228
C         6.97657936247139    0.61868626180110    4.68468438896125
C         8.13803809023799    1.37255527677482    4.56859098037788
H         9.02555225472874    1.11176155307241    5.12255128847714
C         7.19533271654135    2.84105186781168    3.04597286119253
C         5.98147723739221    2.15564340225274    3.11895201000075
H         5.14658764351444    2.50399542821137    2.53168768765153
C         5.87094927016991    1.05543605481102    3.93940082999932
H         4.93082248709496    0.53148800029297    4.00713731740477
C         7.50446876488304    3.97182985884564    2.23509877140736
C         8.76125785541787    4.52590153385812    2.31957999853654
C         8.88989913438184    5.62059341043533    1.41355712880305
C         7.70844496523809    5.85533231257769    0.67140326491935
C         7.62333847546753    6.87691961693386   -0.26204626625214
H         6.70922821014854    7.03372460245167   -0.81380857505280
C         8.72677216423413    7.67924389182489   -0.46441022228955
H         8.67934837947666    8.48104280070133   -1.18571871516567
C         9.90453992088546    7.46327268500138    0.25186756182101
H        10.75620583106793    8.10267586369347    0.07332665044802
C         9.99162644165421    6.44905189722359    1.17723759956673
H        10.90411495153041    6.27783343596089    1.72580329490244
C         7.59817431643766   -1.93960048230428    5.12135881838468
C         8.32213058271630   -1.93812094072777    3.79275480748318
H         7.67577003689421   -1.59805511121050    2.98267452056248
H         8.65512640761406   -2.94590592061239    3.55056940537690
H         9.20065608981821   -1.29267893963767    3.80576499041227
C        11.30538655366231    1.93763343410187    7.67893512817258
H        10.61755421394139    1.23903476522688    8.15308946797633
H        11.76790270258557    2.54296534021851    8.45498615770088
H        12.07129493763853    1.37766159640595    7.14769281561737
C        10.54272400556314    2.81549927593911    6.70395765689844
C         9.61607445715618    3.69875274448627    7.26511017241674
H         9.51964053195296    3.68334887135748    8.34035488928038
C         8.78664140546200    4.58515297561433    6.56950468211987
C         7.86225149506909    5.44197349085391    7.41483508080339
H         8.44071690726858    6.05817571883021    8.10098313487248
H         7.20236014874077    4.80635974677635    8.00144772931204
H         7.26686313008936    6.08395265747627    6.77028001116881
B        14.21813454989387    7.83931892062099    6.82122736649064
H        14.97671673032455    6.94705788307005    6.72269915830071
B        13.66306363324209    8.46022887005911    8.35970460007526
H        14.12313626894507    8.00775770874516    9.34251777382570
B        11.92561218505639    8.72750903685574    8.26916508414633
H        11.25125152747502    8.45314042148718    9.19237853112438
B        11.36681849111705    8.28972993445283    6.67025053999385
H        10.36324000865374    7.70694965281170    6.50537078674538
B        13.90343300806762    9.04362705928845    5.57780674688227
H        14.52979387941838    9.02658723391226    4.58307823723493
B        14.46905815577466    9.53671014418233    7.19077085908773
H        15.55027294993869    9.96099040839575    7.36994142766673
B        13.03998605962160   10.10257624026913    8.09847994615784
H        13.12270584858531   10.93050055054628    8.92873107366413
B        11.60909382564975    9.98135776174077    7.03652360395913
H        10.69537317231842   10.71657442954768    7.11013030099027
B        12.15634497028416    9.30079309816054    5.47561842545152
H        11.65673449892657    9.43073273327994    4.41933255792314
B        13.18514736368444   10.46140122793659    6.35472499343771
H        13.37531659837107   11.54515879989404    5.94127913248879
B         8.32038280273526   -1.09545603416875    6.43268934215991
H         9.34485694649876   -0.56744577736699    6.21825006226621
B         8.17961050614904   -2.83757915987987    6.46355971735510
H         9.15139615016567   -3.47823574888764    6.30171408442400
B         6.69210591287993   -3.30252286000753    5.64821330896868
H         6.69039768655293   -4.24916200198885    4.95163561655788
B         5.87713481122278   -1.85941654184204    5.09039304703681
H         5.38937918640447   -1.77391834132077    4.02494937163859
B         6.96625450319809   -0.38289493735390    7.28738632085825
H         7.06798210546794    0.71370334437702    7.70224685783549
B         7.76044925156864   -1.86143027522739    7.90017555054952
H         8.42299037885985   -1.85671781340476    8.87149016158100
B         6.74342378960591   -3.25062259695091    7.42429769488922
H         6.70006500308819   -4.23124927263980    8.07082761464452
B         5.31072144185830   -2.63408673903493    6.55840507367895
H         4.26394670233332   -3.16695031849833    6.59404601785613
B         5.46561303592231   -0.86296089377557    6.48025051500181
H         4.59746199923545   -0.07524079909670    6.38858847903842
B         5.98335040197340   -1.71760800850161    7.94080691677265
H         5.39584820135159   -1.60742048116575    8.95311292190183

