64
CSD_code = ZIYXUC | q = 0 | S = 0 | Stoichiometry = C28H28ClN3NiO3 | MND = 4
Ni        7.52989733578054    2.95199067340060    8.22348066562625
Cl        6.92052540707610    8.52341245446713   12.64131841302873
O        10.92739977230776    4.60241241975650    9.03772624940840
O         6.42308502298432    1.68166037379639    7.43178902800538
O         4.60001939061555    0.47290952784008    7.81545618071929
N         8.65075953622007    4.21148781348946    8.97986089202715
N         6.31019794883601    3.01880877951739    9.59049114295115
N         8.75864603926938    2.97350190528664    6.70582015074541
H         8.68355769827268    2.03635596034424    6.30284504556752
C         8.47341479502626    3.91942765048121    5.59073834249231
C         8.82143176110831    5.35639826627088    5.97975613874838
H         8.25529109713541    5.65657773456725    6.85958487913155
H         8.55762452104437    6.02225833476463    5.16188633657319
H         9.88004060443880    5.48407383733676    6.18686623388821
C         9.25812808471712    3.49489936027795    4.34605115835643
H        10.33132771136470    3.53708477282202    4.51763654653144
H         9.02648148522478    4.15784920118435    3.51693893462852
H         8.99215710432558    2.48114995667080    4.05242788608077
C         6.96993889439062    3.83633442761815    5.31714430142720
H         6.68020448529510    2.82706024469472    5.03443503263841
H         6.68476241723651    4.52023371057764    4.52218251203796
H         6.42114918075446    4.10686104113338    6.22828149299011
C        10.06256823783456    3.12904408067856    7.35707712448371
H        10.84225560565124    3.49966032314949    6.68363402068624
H        10.39244475638856    2.16136879453409    7.74570226772661
C         9.93929324387569    4.08525552120525    8.55245077442851
C         8.26669433473755    5.18869182557089    9.86466569503402
C         9.03388045469797    6.35394349558630   10.05508683294861
H         9.96609128094288    6.45155598942509    9.52518176909351
C         8.63699648790063    7.36528795064536   10.89404035686189
H         9.24822394377829    8.24612218582671   11.01057105395206
C         7.43586135142264    7.25181802977262   11.58743925961545
C         6.65227265238280    6.13453617211772   11.43165088132986
H         5.71623662817375    6.06735107786872   11.96317758655377
C         7.04023581164254    5.08876443871930   10.58016347154196
C         6.17132574684270    3.93138942513742   10.49300421978010
C         5.10907495320474    3.81441858227858   11.52919234197049
C         5.44343244735816    3.41981675096686   12.81960007042078
H         6.47564706520915    3.21681639056608   13.06598199599360
C         4.45848903037162    3.29745530695981   13.78369079861866
H         4.72412989766043    2.98860382026949   14.78343551413294
C         3.13888527525834    3.57420677034573   13.46850855110243
H         2.37217539750671    3.47947490841318   14.22231222770365
C         2.80385747360620    3.97768865568072   12.18658050725126
H         1.77710101872089    4.20046635518174   11.93890387926878
C         3.78316952451052    4.09605950899929   11.21653728115622
H         3.52649037810439    4.41522489302436   10.21672678220412
C         5.49737018367999    1.81415473942105    9.60883110904715
H         4.48855472308484    1.99702683108141    9.99356970411635
C         6.17989246237404    0.73200253325311   10.47758518167674
H         6.21298498525261    1.07875999081961   11.51397421966102
H         5.56218544813560   -0.16555209125039   10.42247761723692
C         7.56786594434398    0.44548113593423    9.97570433229276
C         8.64344251255858    1.24465532108980   10.36705090399825
H         8.49588616925659    2.03978356206635   11.08734047846891
C         9.92757564259653    0.96000042647247    9.92447604184057
H        10.75490272120636    1.56960688214718   10.25908152465722
C        10.14603215444460   -0.10414254701998    9.06442995208258
H        11.14689404340812   -0.32860745818844    8.72353745469152
C         9.07904654163281   -0.88513276755647    8.65115068336222
H         9.24519492826134   -1.71441760195662    7.97931999907613
C         7.80030953713064   -0.61387562424490    9.10417516545499
H         6.97171164725545   -1.22730291231086    8.78244238515616
C         5.45807706417529    1.25768988102386    8.15372041971304

