33
CSD_code = ZIYYOY | q = 0 | S = 0 | Stoichiometry = C12H12BrN5NiOS | MND = 4
Br        5.96166857690896    8.62737431794438   10.02786339305072
Ni        1.99796464154223    5.48321612546090    4.66298680930794
S         0.78212128452750    5.87948418224534    2.88678030803131
O         3.10125898297048    5.09487135904507    6.11925165777397
N         2.19619023783347    7.31880502278980    4.86320033061518
N         1.58832182961074    8.16237728687669    3.99009514122156
N         0.20299999667462    8.36309196885860    2.17017469348482
H         0.39906067154982    9.34867225046027    2.14074803222351
H        -0.15688345219045    7.91739705289145    1.34492168671059
N         1.73211510842109    3.58705914247849    4.45647510321073
N         2.21647664252476    1.51396121200400    3.98664822707823
H         2.71305802739589    0.70865043039830    3.64179222729660
C         3.69618090436435    5.88412910885660    6.93913918367416
C         4.46669716832899    5.33945081268154    7.99580698251588
H         4.51934541379962    4.26428924900924    8.07465726471176
C         5.12334210767257    6.13903886898494    8.89215462841132
H         5.70568233747058    5.70544056308260    9.69129068631734
C         5.03691732700530    7.52703011629897    8.76988589456182
C         4.30562900473132    8.10787434302748    7.76795755480090
H         4.24588690677969    9.18290714515637    7.68357642094865
C         3.62556511566916    7.30677401471985    6.83696612155268
C         2.87583075971727    7.92077171824093    5.80083867088159
H         2.85876094116605    9.00817456220533    5.76976887429799
C         0.89650664794470    7.60437047644824    3.04858783866579
C         0.71687441465429    2.79855971247519    4.91146742235816
H        -0.14283399681047    3.21101345202626    5.40221894987551
C         1.00612984443861    1.50048484948439    4.62419795633482
H         0.46683568942301    0.59631396628494    4.81392599200213
C         2.62809501213114    2.79559404655479    3.90365152286536
C         3.88958444035640    3.25337209616652    3.27397911415113
H         3.94926019137709    2.93172947830758    2.23558721630057
H         4.75494282299396    2.87141486974431    3.81343700639965
H         3.90591439901785    4.34750619879016    3.31426708836831

