65
CSD_code = ZIYYEO | q = 1 | S = 0 | Stoichiometry = C29H28BrN3NiOPS(1+) | MND = 4
Br        1.17332414229857   -5.54841066579108    5.78887033414709
Ni        0.89313222758408    0.72320931129912    9.62091773622774
S         0.86466726788945    4.52190828586101    7.42753575472975
P         0.93871224785307    0.83973567205360   11.80618136004366
O         0.92899711728146   -1.07741941993811    9.79408486743927
N         0.93892227363886    0.63831040749017    7.72182463725619
N         0.91860806189771    1.89529272212145    7.18822062637262
H         0.93235165634993    2.04553833336154    6.18410357859141
N         0.85495187972111    2.56324469892100    9.33890241354498
H         0.81200103326088    3.31675683537468   10.01685847620986
C         0.99015773644375   -1.98511426337454    8.87298887045672
C         1.03350554287796   -3.33818002424739    9.29352845144058
H         1.02408439121971   -3.52660934222280   10.35587271185887
C         1.08711122351004   -4.36794754031542    8.39656673202779
H         1.11894005580756   -5.39033641031578    8.74008941242947
C         1.10047860634838   -4.09967496066254    7.02078692272105
C         1.06335033973628   -2.81111419613796    6.56193075363671
H         1.07568514122027   -2.61052824427628    5.50137702860677
C         1.00938571437000   -1.73085678065931    7.46591005370410
C         0.97734777984492   -0.40813341956913    6.95848815293786
H         0.98969529103057   -0.27727026424626    5.87673784234465
C         0.87579307243242    2.90380288957083    8.08400436022748
C         0.86827927761333    5.53487749193806    8.95560852188806
H        -0.04926953741769    5.31590755001969    9.50420634677801
H         1.74291391351594    5.24898434582629    9.54266397186021
C         0.93305262080163    7.01071582774043    8.59148727302288
H         1.83414858357064    7.20219218128890    8.00634586944345
H         0.07044075714325    7.27376092093166    7.97699202448661
C         0.94722459625074    7.86206313307449    9.85558380718873
H         0.99792302346320    8.91423661827749    9.59262074078842
H         1.80958703844664    7.62008168065003   10.47279095875192
H         0.04534068959321    7.69779738072683   10.44067827701695
C        -0.36561810429226    0.08457368348170   12.81374719518843
C        -0.57522569356204    0.50820772373724   14.12457271886577
H         0.00871917674169    1.32116699860300   14.53337619978197
C        -1.53945495619457   -0.11271269736563   14.89762069258478
H        -1.70127600516412    0.21273205634941   15.91401987518327
C        -2.29669430382287   -1.14748645931602   14.37055662789341
H        -3.04844725236662   -1.62660023006359   14.97859119483924
C        -2.09350676254674   -1.56351913936891   13.06439083270950
H        -2.68766256739130   -2.36578429281248   12.65416753264961
C        -1.13065607894720   -0.94914182369342   12.28383782410522
H        -0.96270630894736   -1.26080424909786   11.26284553320098
C         1.05573484545614    2.53957369231712   12.44912242646203
C        -0.08918799401417    3.33412886824678   12.37160765481387
H        -1.00874174475018    2.89812204402063   12.00097340758163
C        -0.04765540699672    4.65457988689062   12.77789973353866
H        -0.93771526335490    5.26373663065289   12.72864845755843
C         1.13895574772456    5.19436113266117   13.25338538252306
H         1.17199111378399    6.22530990997687   13.57013942787475
C         2.27868931590287    4.40999611082354   13.32624429647954
H         3.19919464803891    4.82999037568538   13.70181131093689
C         2.24376541441328    3.08581987606043   12.92038070735862
H         3.13260376919734    2.47423976801110   12.97682725534891
C         2.48754105324609    0.03678912056011   12.30794703889597
C         3.51881729279905    0.02908836802907   11.37139162158170
H         3.33958813076562    0.47137935324125   10.38943708562799
C         4.73678597965754   -0.54224954947927   11.68505261721096
H         5.53641062814882   -0.55107798282063   10.96003908775177
C         4.92598666412324   -1.11089513052160   12.93612123925581
H         5.87486464161107   -1.56157458171703   13.18281152511168
C         3.89909509730268   -1.11047097592983   13.86656037081233
H         4.04991124408210   -1.56051203173921   14.83585436002109
C         2.67602918243763   -0.53919063595584   13.55823429532499
H         1.87252073094269   -0.54679657364040   14.28022560271629

