87
CSD_code = ZIYYUB | q = 0 | S = 0 | Stoichiometry = C34H45MoO2PS4 | MND = 7
Mo        1.58378382374229   11.06358262509988    3.75231716615313
C         1.52288074931903   10.70213671357606    5.69360044928072
O         1.77028221361658   10.50885062843740    6.81530748098911
C         2.25157460162085   12.79706546105822    4.25910138563196
O         2.49613302895711   13.87697434117695    4.55585340189792
S         0.41667616243770    9.04900089042112    2.91366783260545
S        -0.44177346707114   11.21654463722879    5.29704696873221
S        -0.17734549897396   12.30375335438597    2.51407420605090
S         2.68284488712271   11.27357555835787    1.46212456096903
C        -1.22059699382074    9.64763608543848    5.09575915988802
C        -2.24923049516959    9.32324251307742    5.97977330595254
C        -2.93089650630457    8.13029678384604    5.85618437869379
C        -2.60020758388251    7.23568070133364    4.84764471117884
C        -1.58244445471505    7.54659139040082    3.96686411101996
C        -0.90233970106267    8.75021349357848    4.08068457381171
C         0.53477911844665   12.92282638191528    1.01186576866591
C        -0.17586877689456   13.86148872428889    0.28055728564434
C         0.36095923640819   14.37220456110671   -0.88454576471548
C         1.61733857945279   13.94566771468146   -1.30292931291564
C         2.32665559501346   13.02122247349197   -0.57066339832714
C         1.79923396009941   12.49164726316871    0.61375780402499
C        -0.54078590919608    9.72480460897219    1.50505113667532
C        -1.28084914229149   10.99341764095173    1.84949419861794
P         3.69927645465714    9.78866657991500    4.21405582190929
C         4.52602451337901    9.03103318621006    2.71590189562276
C         3.69229237595615    7.89710934566880    2.12078540276857
C         4.18040573365262    7.58460791683568    0.70879815881655
C         5.65430420749916    7.19341658380637    0.73096272454031
C         6.48661855201422    8.29726281143984    1.37504659251084
C         5.99168472035375    8.59413498278562    2.79198914445991
C         5.06586234692162   10.84980411587877    4.88462777154039
C         5.43543019412311   11.90566944447966    3.83982354409726
C         6.54927916781051   12.81848801599315    4.34500346939832
C         6.14232524991304   13.48733712466089    5.65184864733514
C         5.81992824413226   12.42422844710413    6.69444136305079
C         4.69008103486637   11.52157562303876    6.20434971218412
C         3.55529535226259    8.45210744217976    5.51028801282780
C         4.75745625246905    7.52615129342492    5.68585519139264
C         4.56387384052321    6.68404631176835    6.94688787025335
C         3.29221921808361    5.84816077837645    6.83867906026123
C         2.08324027720744    6.74641972059911    6.59568398107636
C         2.29246786904738    7.60591003912422    5.35174127000578
H        -2.49445822153721   10.02676345791467    6.76027473082673
H        -3.72067431792890    7.89239970365463    6.55235974356944
H        -3.12844406415172    6.29967415382189    4.75237679490723
H        -1.30099988357210    6.86123830247205    3.18075642987323
H        -1.14446546336045   14.18328890918627    0.63574012094516
H        -0.18811176565180   15.10196539933770   -1.45908559840243
H         2.04402213554097   14.34717221835111   -2.21028685257784
H         3.30243683043987   12.68674142554505   -0.88789746165256
H         0.20788995223626    9.89705912535565    0.72633430772706
H        -1.23290660874430    8.94333313878874    1.18523599777592
H        -1.76585238363871   11.41538754956136    0.96852564060506
H        -2.02597039064951   10.81947725132687    2.63090330277292
H         4.48383688121265    9.86119674945294    1.99923858645009
H         2.64165687352488    8.19149236755163    2.08417503341950
H         3.77849664485491    6.99967705563215    2.73659661350594
H         3.58548015441249    6.77480771574944    0.28046459399720
H         4.04545368797694    8.46990358465495    0.08425141506624
H         5.77619331947525    6.26859371013873    1.30069689365162
H         6.00659583528735    7.00684591949314   -0.28545918294094
H         7.53671434667926    7.99811755858779    1.41077321713471
H         6.41601725731334    9.20307288547200    0.76907948313300
H         6.61926476545450    9.37121953988354    3.22637839484279
H         6.10255181025793    7.69268925583354    3.39208925030383
H         5.92905227676074   10.19535943567496    5.06524769883592
H         4.54732287077506   12.50093603554065    3.61461149833896
H         5.75465003764069   11.43217601446093    2.91058070087666
H         6.76968603708701   13.57425171974243    3.58884562651731
H         7.45782753451050   12.23090248686522    4.50581085428376
H         5.25937188297397   14.10550718970505    5.48187100782499
H         6.94618299366825   14.13403840217488    6.00962454829268
H         5.52390027706593   12.89630250222282    7.63289206321322
H         6.71181625625356   11.82185109682847    6.88848651842990
H         3.78912520150294   12.12024877656594    6.06039640518164
H         4.47613545676722   10.77318106075504    6.96890924823133
H         3.44454079783079    9.02241321668122    6.44043975464268
H         4.83779730270043    6.85191774666303    4.83271939344982
H         5.68184656081179    8.09928188249511    5.76904043316387
H         5.42752329098704    6.03042059542663    7.08878540551057
H         4.49416088808014    7.34093488837038    7.81656223299081
H         3.14779513892693    5.26904037875416    7.75276591740836
H         3.39188556898254    5.14338792484128    6.00939599063547
H         1.18254141054217    6.13959671322748    6.47711248018038
H         1.93446358080662    7.40033374478492    7.45777896541580
H         1.42302711983123    8.25480136308270    5.22029101081546
H         2.36855108839764    6.96524553805356    4.47184974627427

