41
CSD_code = ZIZCOC | q = 1 | S = 0 | Stoichiometry = C14H20ClN4OZn(1+) | MND = 6
C         2.33831580739799    7.45112233109597    0.87012220802832
C         1.44084288203288    5.40909443191241    1.39046548336050
H         1.03164514300154    4.77398832673249    2.16365002101405
C         1.50380687930732    4.97932200435491    0.07947329085114
H         1.15868590184969    3.99451734019279   -0.18927546983320
C         2.02433736097310    5.84391870980566   -0.87376672328818
H         2.10148910770293    5.54445151657172   -1.90716532097370
C         2.43629216235462    7.10148917142679   -0.47212377885072
H         2.83919287159175    7.80639852521973   -1.18205012806583
C         2.80786749122732    8.79867487955951    1.34605024156641
H         3.89753279169808    8.74842375996075    1.43780009709340
H         2.56007516907369    9.56401492054144    0.59893586514938
C         0.84066270502278    9.47869204999100    2.62535499161566
H         0.69413270208171   10.53299247443996    2.36552517303203
H         0.34641968425006    8.86504672252065    1.86876019463509
C         0.21805350947619    9.18589628065166    3.98696628491507
H         0.74864459640761    9.75730643105269    4.75199887609767
H        -0.83410439757157    9.49328544669116    3.99181554370958
C         0.21451715744020    7.47454822217079    5.71370044839967
H         0.07948582119875    6.39591272221867    5.83354025619976
H        -0.65789595543784    7.98165456139720    6.14573714457975
C         1.45924247242302    7.86067542741575    6.46815381216504
C         3.73259528915292    8.17118777927838    6.38637423182871
H         4.61826462574487    8.15336271339717    5.76760519774525
C         3.79303476501343    8.47029855931707    7.73545097055600
H         4.73784321023178    8.70319497937117    8.19806638739677
C         2.61649488421091    8.45939316168941    8.47030383130188
H         2.62206600494971    8.68629456963913    9.52503317756001
C         1.42993834944347    8.15065059097079    7.82543728826007
H         0.49527967339751    8.12883634223267    8.36344162518420
N         1.85636574492436    6.61051611257435    1.78320205931381
N         2.25623890265363    9.11152815515812    2.65920713824623
N         0.37243608076857    7.76469364479817    4.29517634227764
N         2.59162584170514    7.87732069888118    5.77152045317202
O         2.41756278023531    5.12104448754849    4.65141488256937
Cl        4.58831085004369    6.83855006967814    3.40778031424909
Zn        2.43392713386173    7.24722072404335    3.76115044836623
H         3.38378277190438    5.09522966102286    4.72070985623602
H         2.79128068892211    9.87394729724464    3.06622640907504
H         2.16558744319986    4.28952078436454    4.23750716454946
H        -0.30977690386192    7.23698341287169    3.76072371071070

