78
CSD_code = ZIZDUK | q = 0 | S = 0 | Stoichiometry = C39H36P2Zn | MND = 4
Zn        3.15304776002452    4.07094367546181    6.33233504786644
P         5.64695041861656    5.20504314476230    6.74466787215586
P         5.10212015151867    2.60708137337984    5.02841730157788
C         7.01777884670815    4.76380350741301    7.87415966320731
C         8.36928978458239    4.73240772043601    7.55707152296095
H         8.71665318007589    5.01407527264643    6.57453236933945
C         9.29561441914906    4.34019238626505    8.50848790854873
H        10.34512594577941    4.31609676712692    8.25181507415090
C         8.88651822906636    3.98131692889449    9.78047422535895
H         9.61549622589959    3.67474985158251   10.51620464504420
C         7.53953977642749    4.01501285041816   10.10550502058468
H         7.21234813589781    3.73531572627705   11.09627910850727
C         6.61296381116061    4.39772885515386    9.15685620593224
H         5.55763069827006    4.40742770210596    9.39712587168420
C         5.28434426086701    6.86297008656827    7.44423837492626
C         6.29826134381619    7.74604265283543    7.80468460708802
H         7.33312949485065    7.45381126295019    7.69007083177885
C         5.98627856043266    8.98831138968242    8.32387452107261
H         6.77831482043675    9.66871295217142    8.60165434828779
C         4.66194400835390    9.36094071171940    8.49262641326006
H         4.42200113930273   10.33285880259082    8.89783049454259
C         3.64853972492043    8.48268984251651    8.14883300206215
H         2.61529629681585    8.76607698157842    8.28618416575421
C         3.95966624638034    7.23753216912795    7.63090646956049
H         3.16760989369706    6.54298645460149    7.37033079667365
C         6.49839264903733    5.74846432013727    5.19011258687245
H         5.74953325198793    6.30948454400113    4.62209553650269
H         7.30933989521983    6.43700263246678    5.44905203114828
C         7.02409443570771    4.59869172525679    4.33563087482807
H         7.72132152663388    3.98608515482617    4.91307121714821
H         7.58039980549080    5.02887860134480    3.49551288874205
C         5.92874741049241    3.70225896347409    3.76810092836434
H         6.35106294031837    3.06243693673528    2.98692852870237
H         5.14298176973256    4.31730579472953    3.32015361253732
C         6.56317933318694    1.82724156158016    5.81573072063956
C         6.58437379884870    1.73328952225585    7.20189036723962
H         5.73902445761519    2.09452617921954    7.77061631600559
C         7.66983493626583    1.16974281671198    7.84922414314057
H         7.67524149522167    1.10267208363475    8.92698906533360
C         8.74462864776152    0.70050610470505    7.11493197688885
H         9.59751574254344    0.26788557872883    7.61717721980625
C         8.72256754129112    0.77598084562004    5.73064525154282
H         9.55576396495754    0.39694454608588    5.15597617550492
C         7.63621451713068    1.33066114016100    5.08086693183259
H         7.61839406173562    1.37090489191510    4.00054299478687
C         4.59720730017738    1.22109291760563    3.94606193392911
C         4.58301836375195   -0.06916702584012    4.47033733675163
H         4.93633540043063   -0.23771011177837    5.47907006306046
C         4.13193735613012   -1.12994183879270    3.70783396265123
H         4.13291835063905   -2.12827380085572    4.12109152823936
C         3.67482591476313   -0.91379561453672    2.41797991031467
H         3.32047099441799   -1.74238009771556    1.82263958172962
C         3.66533067160458    0.36967823783311    1.89824535416996
H         3.29980589014206    0.54426966936375    0.89647116344875
C         4.11781177744315    1.43397384664180    2.65731831583469
H         4.08785996713010    2.43313991364634    2.24834776204134
C         3.06033106136517    3.04832472414212    8.08011465752961
C         3.20703876491888    1.66031929201456    8.05094722352611
H         3.22159242507888    1.14782053243774    7.09329974485897
C         3.33904902795650    0.90556317961712    9.20527263181773
H         3.45306609536137   -0.16873431290962    9.13876866347502
C         3.32998615780087    1.52552690669663   10.44210114992207
H         3.43650734060059    0.94323290035135   11.34715934777130
C         3.18127944581891    2.89933284432691   10.50736147171127
H         3.17037918699847    3.39708133956123   11.46865558886554
C         3.05018210757997    3.64134321033510    9.34373724189698
H         2.93345564648494    4.71666942607782    9.43103467608832
C         2.67325432224680    4.92139726636304    4.55033689107250
C         2.16858927334124    4.08825800766640    3.54934173574072
H         1.90183942507952    3.06495427586135    3.79218134755150
C         1.99020794016910    4.52350962773289    2.24558756117535
H         1.59454707606911    3.84597943660051    1.49988568868769
C         2.32037254122665    5.82081889466149    1.89616869383305
H         2.18856985864584    6.16541347546437    0.87959325793797
C         2.81708924956506    6.67418071996417    2.86546759480185
H         3.07514440265280    7.69345233130883    2.60769711271429
C         2.98647771615455    6.22618970663182    4.16596299431545
H         3.37224359403195    6.92528710766559    4.90101258304670

