59
CSD_code = ZIZFOF | q = 0 | S = 0 | Stoichiometry = C30H24AuClOP2 | MND = 2
Au        2.28942453143550   11.44584098130476    0.88308337099936
Cl        1.84581667264450   10.35123972710503   -1.05451229182518
O         3.76365541315849   10.19135933820603    3.21710050001135
P         4.96543862720423   10.42756538371189    2.40229677371095
P         2.76364712612260   12.70202299532657    2.67542664405935
C         5.47042695654445   12.17922402922022    2.38733478425768
C         4.51620310948710   13.17093989362740    2.63045873564375
C         4.91972224382323   14.50174291632587    2.69760876073252
H         4.18710964019119   15.27606406511778    2.87743288850087
C         6.25215115272661   14.83826319990931    2.53248336048458
H         6.55290666862357   15.87378294124240    2.59104715726525
C         7.19437192638617   13.85339188393860    2.28549211920780
H         8.23218581764499   14.11706056271922    2.14594906738080
C         6.80382609627669   12.52711406491522    2.22050276202544
H         7.53467934748240   11.75192198570350    2.03814853111465
C         6.40777725701384    9.59597163741146    3.13733319056343
C         7.45574868695903    9.07116715014479    2.39260666077894
H         7.43602081085308    9.13595316883594    1.31311938536637
C         8.51249485297894    8.45634063382375    3.04054267871475
H         9.32779497318105    8.04244342116523    2.46528545353027
C         8.52471311717811    8.36701173070490    4.42351986893038
H         9.35195801186370    7.88494831970394    4.92330073033150
C         7.47589483682212    8.88600520663261    5.16599248272368
H         7.48450321946202    8.80868778662178    6.24333365037674
C         6.41670908514010    9.49919904111797    4.52281338535727
H         5.57736371419420    9.89742082897946    5.07649942465984
C         4.91258894072425    9.81477910564010    0.69772166572386
C         4.32012536627938    8.56701170777439    0.54094585690994
H         3.88641126515555    8.08348847786956    1.40684850113932
C         4.26205260753052    7.98911810492215   -0.71191600594073
H         3.78327280165648    7.03043074499338   -0.84399873180660
C         4.80049002682753    8.65472487288968   -1.80148892451309
H         4.73692014043408    8.21393459629812   -2.78488243482427
C         5.40118347421541    9.89238151860150   -1.64060866614723
H         5.80796180266991   10.41161564080454   -2.49622195689278
C         5.46680790969158   10.47689885271784   -0.38883981069110
H         5.92148893967417   11.45043226821571   -0.25783612863858
C         1.92589879810764   14.31493321785144    2.59376306014925
C         1.62109529509659   14.81400398706386    1.33074131859624
H         1.88111568164810   14.22815521369779    0.45713562413146
C         0.98557136635127   16.03434143381877    1.19914034105526
H         0.75187194481203   16.41692800643150    0.21690287085788
C         0.64011538355658   16.75870753460052    2.32920738898181
H         0.13638136845308   17.70850317686641    2.22828606520825
C         0.93269397253967   16.26185362668611    3.58904739721130
H         0.65826078834134   16.82434194270169    4.46948661294315
C         1.57447222589855   15.04392439691887    3.72606499981868
H         1.80138773455307   14.65636645188254    4.70982102294193
C         2.42109508320323   12.19867658659711    4.37869082003733
C         3.32095504450912   12.38089693248137    5.42132583287410
H         4.28406139767676   12.83792056801068    5.23398834062629
C         2.97870960674448   11.96002746428958    6.69381262607514
H         3.67625914097614   12.09445249269744    7.50827132569080
C         1.74979999764513   11.36316605394425    6.92512544675121
H         1.49219591177215   11.03223665241803    7.92052341163645
C         0.85493460979722   11.18063351651997    5.88255423357626
H        -0.09852943181022   10.70690531823311    6.06383502415292
C         1.18950557827864   11.59527732745340    4.60732667569089
H         0.51310133158888   11.44554931459026    3.77512612177424

