75
CSD_code = ZIZGOH | q = 0 | S = 0 | Stoichiometry = C26H44Br2P2Zn | MND = 4
Br        5.28297279149790   10.96053902281415    6.80747051273935
Br        7.16060320927613    8.21435180619419    9.62439574218105
Zn        5.48036529279377    9.01723499668633    8.15165603242065
P         3.02048223137141    8.57337077004354    8.80989540843955
P         4.92390564355344    6.79850821620187    6.86909302553039
C         2.15269217164991    9.34704299000262    5.73571410463333
H         1.67874774494521    9.02053996774258    4.81269069111717
H         2.90070859733600    8.60121657501393    6.01515395997943
H         2.66335835486758   10.28900944569155    5.55155502489882
C         1.11773378403844    9.51105261140595    6.84314187060887
H         0.56511424698889    8.57011182670410    6.95631029185483
C         0.12760021720098   10.60782820777764    6.45164682484606
H         0.63217275800890   11.56997788548263    6.40394321076529
H        -0.69244003771988   10.67603643329373    7.16139957125489
H        -0.29046545498970   10.39281119116397    5.47101939228506
C         1.80487872558217    9.85334826364186    8.16992298216904
H         2.42179526382720   10.74805663598237    8.00162427170724
C         0.85188370017588   10.13818208456798    9.33673156683340
H         0.42487321260405   11.13721446862358    9.24868372510443
H         0.02971776368291    9.41842257395796    9.33744588997616
C         1.65901203947491   10.00522179829352   10.62129004651542
H         1.01720723568566   10.07089942670538   11.50018817466132
H         2.39616179491282   10.81117534715842   10.67283067095460
C         2.37744077689236    8.65550872225884   10.56053896072171
H         1.65546370023411    7.84506805059540   10.71635794205511
C         3.52326596534086    8.48013090172460   11.56358878988699
H         4.32165616403370    9.19099817544245   11.31201640185306
C         3.07294069505054    8.75442350994530   12.99587435169231
H         2.79029461275323    9.79521090250703   13.12923364444415
H         3.88492899141942    8.53292789066879   13.68401406077365
H         2.22294310770489    8.12538071661768   13.25459131050473
C         4.07271827389954    7.06243701854820   11.44768873499336
H         3.35027097156558    6.33911101972420   11.82179679625670
H         4.99937405239369    6.95733722579929   12.00530975004418
H         4.27628645241509    6.82460343849006   10.40143356662735
C         2.41334578364037    6.98613577891912    8.12949971490707
C         1.11958655794910    6.55664736942732    8.41198299591005
H         0.50264730693534    7.12267173567891    9.09465694850633
C         0.60051043628916    5.41965398640057    7.82304728035899
H        -0.40440933680363    5.10052681996451    8.05609148366345
C         1.36732972740261    4.70820619490100    6.91612222637527
H         0.96430943599968    3.83046257886431    6.43320762165043
C         2.65329821991631    5.12346262667737    6.62600363092732
H         3.23086118606794    4.56197365966015    5.90842484483299
C         3.20570244516463    6.24747308925442    7.23566913178861
C         4.88759712837278    3.67934499227894    8.82235182436219
H         5.17358785142506    2.80620728339319    8.24037059937794
H         3.91102724534426    4.02117194572592    8.48931342830311
H         4.80088641594604    3.37501161133657    9.86299530688847
C         5.93907710614280    4.77849593586518    8.70508314183375
H         5.66441616495045    5.58749297757941    9.39042284421469
C         7.29942017493113    4.24929455443501    9.15950199366181
H         7.21406090836921    3.80570076801970   10.14805647533564
H         8.02088757937649    5.06005783342101    9.21711091534518
H         7.66947410218441    3.49015123671477    8.47390976525121
C         6.06287641070060    5.38442468273999    7.29862997867199
H         7.03941466733861    5.89670560475503    7.27085644865150
C         6.02724940405725    4.42729861518845    6.10794692213233
H         6.88813718420165    3.75728875885650    6.13275422305211
H         5.12951407051911    3.81072842311264    6.13001979999193
C         6.05750245663548    5.29689721954457    4.85468316166275
H         5.78843563427144    4.71964200809690    3.96891025538741
H         7.07171755608486    5.67020545636937    4.71677452531195
C         5.09484521121544    6.48321345545734    5.03348683683730
H         4.09559382116007    6.21568834933416    4.66707219910465
C         5.51894847627078    7.77074161741448    4.30135414496650
H         4.80953100575566    8.55527911271532    4.59252956207391
C         5.41787826156936    7.59207887743096    2.78836903029217
H         6.10593230521120    6.82349227060509    2.44349396865926
H         5.66757159611644    8.52437874834398    2.28845799006065
H         4.40791592343630    7.30889715330901    2.49886487449082
C         6.91793413093585    8.24371251836523    4.68862096537170
H         7.07104274548846    8.16518794513565    5.76823677874609
H         7.04589326697231    9.28574239747422    4.40649934289803
H         7.69148438190659    7.66256368973168    4.19196951669108

