59
CSD_code = ZIZGIA | q = 0 | S = 0 | Stoichiometry = C30H24AuClP2Se | MND = 2
Au        6.34136489591873    1.50703059464782    4.10227961791122
Cl        6.37064243252453    0.78602548278868    1.95358576757435
P         3.24167083943463    1.86938497676175    5.69031366663568
P         6.50160104299222    2.37852343741724    6.15891480173352
Se        3.95124070559146    0.03356298455667    6.40994572517181
C         3.87025497500685    3.30478167470644    6.63463254887553
C         5.23877945913861    3.48498598184469    6.86534390766659
C         5.65878662998028    4.54319460031259    7.66961667467515
H         6.71605631074565    4.68477788691146    7.84787857155299
C         4.74359196188222    5.40457794216367    8.24565625223543
H         5.08839854481904    6.21331027856587    8.87242242197500
C         3.38973158330682    5.22068417350961    8.02115154855586
H         2.66687234241813    5.88665357883895    8.46790493303705
C         2.95864824499921    4.17451114299154    7.22568816929396
H         1.90080210200274    4.03076142292607    7.05882478959514
C         3.46382083114837    2.24214493991977    3.92306086823206
C         3.12040074080147    1.22484100988185    3.04056451225429
H         2.81545228592278    0.26435142527892    3.43772057790560
C         3.21567358705919    1.44141974560850    1.67984911660411
H         2.97814287019206    0.64713624896501    0.98972660033069
C         3.64217630399412    2.67173773197140    1.20662356964626
H         3.73747622925840    2.83346889769925    0.14402884945120
C         3.96815355675023    3.68957835941058    2.08831261228123
H         4.30532495961647    4.64483054815494    1.71263866936939
C         3.87842463081796    3.48329131961396    3.45279873122634
H         4.13659162397719    4.27047543608024    4.15153198523967
C         1.42490526490574    1.97939020010970    5.84466429822121
C         0.77805871570927    1.18832911496259    6.78451356252851
H         1.36311092634252    0.52404664099838    7.40688656511719
C        -0.59857061690047    1.24340506179069    6.90566847748274
H        -1.09878415813848    0.62505147052329    7.63576625317931
C        -1.33143890930807    2.08632166471663    6.08653139211998
H        -2.40676518403972    2.12647419311364    6.17632165687638
C        -0.68763812003607    2.87478677268298    5.14542284217661
H        -1.25994562480197    3.52875840811232    4.50400005824309
C         0.68824176923457    2.82483998804268    5.01913501218165
H         1.19039267433944    3.43805481289835    4.28331817363525
C         6.89427623448140    1.23330823821192    7.50039919735813
C         7.66766302437590    0.13184834419817    7.14241308251882
H         7.96855115741492    0.01184021767962    6.10822288089916
C         8.02337164336041   -0.79883432497309    8.09890687098250
H         8.61937465636886   -1.65540941875877    7.82179056376735
C         7.59968683508838   -0.63761145725035    9.40896366266256
H         7.86659784170615   -1.37121493585209   10.15500295683605
C         6.82314266161363    0.45368724109676    9.76202262419709
H         6.48586266305779    0.57032063824196   10.78154152640701
C         6.46635898927481    1.39465921913353    8.81275949526300
H         5.84900153004375    2.23858507771121    9.08805053918303
C         7.94625355501116    3.47944242939130    6.11433032727187
C         7.94092921265186    4.45475816396725    5.11858332170216
H         7.08621498872858    4.52601524511319    4.45592102870762
C         9.01687037625051    5.30750980977931    4.97717510229324
H         9.00930495563066    6.06427962453920    4.20698129045441
C        10.11301144194757    5.17983334304798    5.81783688358168
H        10.95963364793866    5.83971656529896    5.70195119859155
C        10.12806988718525    4.20181287018683    6.79757412504045
H        10.98566815180934    4.09871956057371    7.44595998407364
C         9.04767663968985    3.34917644071811    6.95096357805861
H         9.05983347840790    2.58435695904898    7.71540597969544

