59
CSD_code = ZIZGUM | q = 0 | S = 0 | Stoichiometry = C30H24AuIP2Se | MND = 2
Au        3.65865467517227    4.43778923959612    9.25603056999493
I         1.32806404605676    3.46297843134084    8.90165727958900
P         5.13749156781593    4.90439661524634   12.42814602310191
P         5.70017880974992    5.40232674131074    9.22233611582273
Se        5.80586851363918    3.02978271696063   11.76719472712878
C         6.14506296998293    6.31684785631755   11.85069466862436
C         6.38657804753244    6.52026017712590   10.48779878097656
C         7.18715540858557    7.58868205741954   10.08984881418780
H         7.36790401163927    7.75326848291985    9.03628613737791
C         7.75750407911528    8.43087829836802   11.02637574620010
H         8.38038186595719    9.25075560085239   10.70123106159058
C         7.53619034200625    8.21344651556261   12.37624859722679
H         7.98588792695993    8.86137033166728   13.11357213059454
C         6.73645418290697    7.16123602735600   12.78454383298529
H         6.56602059645791    6.99413726003301   13.83859485954053
C         3.40016291690730    5.34663322041598   12.10261875500808
C         2.45689798497591    4.40373734427131   12.49625818825193
H         2.79639071866306    3.45798729328066   12.90156210185068
C         1.11144302067800    4.67039436489546   12.33038328973892
H         0.37629388897476    3.93168359975476   12.60850360428227
C         0.71093342266886    5.87801593501969   11.78003011299517
H        -0.33893904480103    6.07724917718670   11.63191052932168
C         1.65152865340301    6.82166209927329   11.39929461249907
H         1.33402112173953    7.75962407480070   10.96719782634803
C         3.00150854872502    6.56320091813194   11.55970491571126
H         3.74311841911586    7.29682849804756   11.26550208150024
C         5.19136881531005    5.01667188887641   14.24873690566709
C         4.36252143047293    5.90064893201344   14.93465696294244
H         3.68407860293450    6.54336290684565   14.38981787551595
C         4.41204286026651    5.95159875517308   16.31525042860125
H         3.76617820976788    6.63367357138102   16.84840332896111
C         5.28268780166241    5.12851414145987   17.01323175838155
H         5.31337127574490    5.17031775891013   18.09175391803469
C         6.10763713826281    4.24977908930681   16.33048262969673
H         6.78375633375374    3.60579579699439   16.87285634795230
C         6.06079561959285    4.19144963963426   14.94944300182721
H         6.68801053827659    3.49871383267052   14.40385365690819
C         7.07178673422797    4.27261234142935    8.88361810037837
C         8.34890733834643    4.40763673962661    9.41432389716983
H         8.58437623608175    5.22998982285047   10.07597239885033
C         9.31641053472160    3.46973200411031    9.10116669099929
H        10.30808404227603    3.56801268287162    9.51807906791369
C         9.01697969793726    2.40544077256423    8.26698885612213
H         9.77660061906490    1.67420070992342    8.03408461816634
C         7.74180889867980    2.26851033269306    7.74109030667250
H         7.50404342949590    1.43308842592547    7.09972724484618
C         6.76821094735067    3.19666737577488    8.05298321583710
H         5.76098300520054    3.09220955643691    7.66572595448802
C         5.69442477512504    6.48427999594871    7.76164735735214
C         6.61075578786812    6.38979125224347    6.72092791956809
H         7.41408841725563    5.66710621465901    6.77003475936978
C         6.48697865430991    7.22264616733325    5.62212746287671
H         7.19797199159885    7.14664858283183    4.81252175341532
C         5.45728388359054    8.14640807392699    5.55719060680505
H         5.36510325736268    8.79106282094118    4.69608430366278
C         4.53740064166032    8.23837021297962    6.59102872531119
H         3.72834558644478    8.95155543168070    6.53617676193730
C         4.65045929215396    7.40439211566061    7.68532624100628
H         3.92639090856247    7.45153917716564    8.49106158031411

