52
CSD_code = ZIZHUN | q = 0 | S = 0 | Stoichiometry = C25H22AuIOP2 | MND = 2
Au       14.45793598053600    4.51536775612001   11.12318801084892
I        13.40888313917199    2.19061959914694   11.06566610507649
O        17.16924148690033    4.10485612714064   12.41080457064822
P        16.89083524454603    5.29717982386552   13.21474014175233
P        15.11255819599250    6.65338051669102   11.30653783336924
C        16.72039479705781    6.81784827878713   12.17695179194624
H        17.53209746744945    6.77496886523488   11.44154611548222
H        16.77472098239241    7.74326855082187   12.75446537628350
C        18.23155754807426    5.66898318332099   14.38909633648850
C        18.28478991851004    4.85714258540577   15.51504784628119
H        17.51132708506028    4.11357813252335   15.66133568238906
C        19.31557053901155    5.00112192103167   16.42426623524365
H        19.35641280822794    4.37144147282135   17.30053657780684
C        20.29849937419896    5.95361120875394   16.20479151382142
H        21.10583618351736    6.06803891549781   16.91272305842013
C        20.25362357767555    6.75357832451915   15.07527676386236
H        21.02675866197700    7.48782048464921   14.90158673528021
C        19.22205600939777    6.61212627029554   14.16258862201101
H        19.19674590560544    7.23121981491342   13.27637329855074
C        15.39698509454648    5.21570438968627   14.23338541904516
C        14.71228294392801    4.00881722670866   14.29256814447383
H        15.10512945463342    3.15559286604539   13.75725745324587
C        13.54813669200689    3.91391766956486   15.03421198288831
H        13.00433099557269    2.98197635110126   15.06187284729097
C        13.08455602145202    5.01990880170464   15.72862091852894
H        12.17210627827585    4.95094090048590   16.30211407782169
C        13.79223304724769    6.21240077780246   15.70382161797266
H        13.43728930150267    7.06603296970431   16.26273638410521
C        14.95166548551706    6.31375189074555   14.95812971610119
H        15.51338912081626    7.23817051103279   14.93920619770454
C        13.99614451377042    7.69054614391636   12.28508462973229
C        12.77404383807933    7.15226456038940   12.67076477746660
H        12.52383641050866    6.13996123142042   12.37791917920024
C        11.89428702642088    7.90111388617393   13.43099171068046
H        10.94834897138911    7.47657555608697   13.73105176150895
C        12.23256234679906    9.19025534187770   13.80600445182819
H        11.54937417099234    9.77565989737539   14.40299203402354
C        13.44563272667326    9.73591611094807   13.41304288112704
H        13.70261312795612   10.74525300563856   13.69974965650493
C        14.32728150065846    8.99294170900319   12.65177082267431
H        15.26680941884863    9.42538866033432   12.33147050274956
C        15.39651591030654    7.59249930393069    9.78087588451354
C        16.38243128013225    7.09800346264749    8.92689207799907
H        16.96307717998911    6.23278270681836    9.22527692663084
C        16.60407928315673    7.69828290222159    7.70336833748349
H        17.37197963410772    7.31705350674074    7.04693174966112
C        15.83009956312773    8.78163100151038    7.31560987545068
H        16.00060379191184    9.24952420107868    6.35777893111964
C        14.82759406421751    9.25297232939717    8.14666126590885
H        14.21350534024286   10.08509642822285    7.83542484242694
C        14.59998924015248    8.65752884930431    9.37498119350785
H        13.80744127298134    9.01788299797627   10.01600916568128

