53
CSD_code = ZIZJOK | q = 0 | S = 0 | Stoichiometry = C26H22Br2FeP2 | MND = 4
Br        6.63235660977167    4.74964597315449    5.34410108131698
Br        3.22157067064857    4.74930511018716    3.15214882437671
Fe        4.43149531833192    4.74910848245952    5.00757126126691
P         3.61770454415634    6.23627230556639    6.33712479975802
C         4.76444176188048    6.99390859135766    7.52919985012900
C         5.80059382865401    7.76258155128219    7.00078490194724
H         5.85763872089529    7.91024086316706    5.92877914891260
C         6.75185048967025    8.31532094957848    7.83498900427514
H         7.55263791531576    8.90978723395130    7.42129210409977
C         6.68400713057924    8.09154460697296    9.20151558408208
H         7.43155444652731    8.51633471829619    9.85473119114616
C         5.66752321881673    7.31309725682828    9.72851606694691
H         5.62316296080939    7.12996031248054   10.79229134960225
C         4.70940125918487    6.75963955349114    8.89743276437830
H         3.92311088073281    6.14382353885613    9.31038509900132
C         2.60550683777761    7.64746918294999    5.77149113351818
C         2.90603639149617    8.97928604077028    6.03286178391316
H         3.78286034680432    9.23789348540271    6.60901731945857
C         2.07158783991497    9.97662305920734    5.55838175044931
H         2.30759782576498   11.01073758198587    5.76322245711074
C         0.94283397288259    9.65505941358533    4.82363493323613
H         0.30012955816468   10.43906544626063    4.45163793583600
C         0.63996082879597    8.32774202463356    4.56227434279294
H        -0.23753608702682    8.07367196507271    3.98694340289174
C         1.46865320497349    7.32749134895499    5.03108596534316
H         1.24693226628621    6.28995732543072    4.81953231611571
C         2.40405084504563    5.41442753834253    7.42058262508796
H         1.72214534310171    6.02340585369319    8.00475397327824
P         3.61766879242711    3.26243345881888    6.33727445318986
C         4.76456332525862    2.50492040537976    7.52927399942015
C         5.80071617365272    1.73628299423466    7.00080067703528
H         5.85778951092623    1.58871451038323    5.92878626451407
C         6.75193495296769    1.18343610474337    7.83497933725661
H         7.55281747998866    0.58913185749273    7.42123704684944
C         6.68403466461745    1.40705330611237    9.20152619606211
H         7.43164495543664    0.98231848396559    9.85469953903853
C         5.66751813860908    2.18542390156307    9.72858553033784
H         5.62311870695405    2.36843578440720   10.79237812770329
C         4.70945659185003    2.73902046611509    8.89752818531324
H         3.92305149118265    3.35465147545970    9.31052613850998
C         2.60548236920337    1.85129432251717    5.77152955533227
C         2.90611575854137    0.51947844223760    6.03272946323673
H         3.78299662389750    0.26086122079896    6.60879069934627
C         2.07163849197033   -0.47784215849447    5.55830918714019
H         2.30774340012184   -1.51196439822076    5.76298982944626
C         0.94278313381962   -0.15626240798686    4.82371439079686
H         0.30012847263876   -0.94026287356984    4.45162355123317
C         0.63978921341599    1.17106097832246    4.56255528241828
H        -0.23778958816422    1.42515736842096    3.98736453595639
C         1.46849726108729    2.17130269407928    5.03135178724936
H         1.24665760064934    3.20885612166888    4.81999583119162
C         2.40425099979042    4.08447386572987    7.42082224055396
H         1.72228254923912    3.47552276188831    8.00494518057188

