52
CSD_code = ZIZJID | q = 0 | S = 0 | Stoichiometry = C25H22AuBrP2Se | MND = 2
Au        5.71514551516883    4.60192470560791    4.37023203340069
Br        5.72808750827096    5.59339486841134    2.23325208735214
P         5.65800393588242    3.48777453762885    6.31447758659373
P         4.89674414030312    5.60610817445853    8.36696612859614
Se        5.80762386287035    7.01408867162155    7.12831221676448
C         4.38216203375484    4.03175819918450    7.52161471569382
H         3.45990411481478    4.24420403668238    6.96702196335949
H         4.19241941985107    3.24778054941445    8.26318147570777
C         3.31692086649085    6.21018417398018    9.04330557144534
C         3.10447396695912    6.42016933756606   10.39916362391325
H         3.87141000902959    6.16185846238248   11.11596072214327
C         1.90583795857086    6.96596363720383   10.82498060938964
H         1.73804906081793    7.12732531811440   11.87946911009400
C         0.93017340195637    7.31310483342234    9.90549898576974
H        -0.00118232504683    7.74110750570674   10.24433656491825
C         1.15393190605601    7.13003577158309    8.54953178960931
H         0.40282117939420    7.41975553999405    7.83029869786861
C         2.34830656387385    6.58733396983156    8.11767900301404
H         2.54895635748534    6.47507280020966    7.05936849066172
C         5.88418675319589    5.05568696368095    9.79614732411414
C         7.10239877694271    5.67446636541497   10.03473449840571
H         7.43953568990879    6.45090770587054    9.36107785594973
C         7.86976453112405    5.29459160145403   11.12096751644611
H         8.81763683629834    5.77739779408981   11.30389021037750
C         7.41796167613134    4.29967464182013   11.97086005153269
H         8.01520406231065    4.00105454653677   12.81933392148684
C         6.19429268550546    3.68922426058200   11.74110158738695
H         5.83843341266204    2.92050198888620   12.41130014754148
C         5.42291071127175    4.06489165211407   10.65811429008436
H         4.46036157716846    3.59945487275097   10.49229806694400
C         7.14738081627725    3.41403324916137    7.34008767202985
C         8.20432540024004    4.26535731620921    7.04153551784417
H         8.11915103515459    4.94756266524935    6.20550298052680
C         9.34782420112524    4.24053153903512    7.82010377878666
H        10.16657759371687    4.90582912787441    7.59193787480666
C         9.43906004363521    3.36065062246119    8.88506687544100
H        10.33275918362226    3.33781937258223    9.49051612255886
C         8.39061618208387    2.50005128208098    9.17462287049203
H         8.46896963505490    1.80992737664652   10.00172460210138
C         7.24374425601108    2.52256133711777    8.40634471060348
H         6.42719091357602    1.84479906632906    8.62000581679574
C         5.24646111837977    1.74374649791222    6.06351632294349
C         3.93902311429157    1.26903767388974    6.09562475318882
H         3.12287622256668    1.92720854510548    6.36026622038318
C         3.67964416628787   -0.05306572747592    5.78066696614179
H         2.66459630724768   -0.42058143512275    5.81221815769047
C         4.71356820137216   -0.90035064760648    5.41891948641361
H         4.50475731289081   -1.93027708128155    5.17227770933612
C         6.01427802633907   -0.42403073316349    5.36108866594313
H         6.81961521481152   -1.07993174300432    5.06633404977867
C         6.28064102686968    0.89459373888823    5.67312583315794
H         7.29146383945860    1.27943047093827    5.62123616644801

