55
CSD_code = ZIZKAW | q = 0 | S = 0 | Stoichiometry = C26H24AuIOP2 | MND = 2
Au        9.27182722208563    3.24518357531684   11.24569090155496
I        11.55379259347374    2.30058844110629   10.59033851977150
O         5.98395673020821    3.07433441570629   16.42276086837190
P         7.15350734599579    2.28661628021118   16.01357525543740
P         7.25018546204316    3.93129387385207   11.96628815073698
C         7.86983736754415    2.92345700870682   14.43595328133033
H         8.21980556380949    3.94130258347771   14.64361019528301
H         8.72286269234496    2.33894824306559   14.09105359001441
C         6.74348536631095    2.92915206455850   13.41095445023289
H         5.81801521870917    3.31855411135477   13.85240335661902
H         6.54011761080580    1.91178651795391   13.05517888550884
C         8.51310713009216    2.32040110354980   17.21821329779772
C         8.28997248789712    3.02594807620576   18.39222846949313
H         7.33613730660848    3.51503874578180   18.52891253601635
C         9.27880821426535    3.09356723194629   19.35717251094337
H         9.10656175819522    3.64337751045628   20.27066908341624
C        10.48930021829373    2.45371627961537   19.14771419650409
H        11.26366271953518    2.50482656262293   19.89872268371878
C        10.71104431731520    1.74544453037513   17.97651565423914
H        11.65581591684295    1.24732822435910   17.81684971507840
C         9.72509008139886    1.67467323335982   17.01015911334959
H         9.89830194919391    1.11832545672379   16.10136619435118
C         6.76766475824443    0.53623240172369   15.69783027013544
C         7.57077193530299   -0.31405821040344   14.94830971685149
H         8.47806481957483    0.04774393811211   14.48710421490383
C         7.20132300253895   -1.63631721451490   14.78140995029767
H         7.82359167463523   -2.29634710563664   14.19510299430777
C         6.03776933070852   -2.11426344140224   15.36335621659838
H         5.75639904340580   -3.14839734700189   15.23063043152061
C         5.23583670073827   -1.26794426559282   16.11140922417521
H         4.32816556046412   -1.63961720906630   16.56342342805277
C         5.60126454085039    0.05550667488437   16.27783549944460
H         4.98900301287348    0.73854793761538   16.84912926876504
C         5.83999531813739    3.73710187477417   10.84196219759347
C         5.98129347551251    2.89519921007307    9.74459324402270
H         6.92782392160114    2.39662993231620    9.57353956114708
C         4.91928996775704    2.70513078650993    8.87923627536296
H         5.02910140782075    2.05155129929855    8.02679550898471
C         3.71971055876147    3.35964705016416    9.10632269304861
H         2.89178278264019    3.21570581803195    8.42842277974240
C         3.57911104674456    4.20332870353800   10.19785305416413
H         2.64300723414189    4.71392740756065   10.36924799156402
C         4.63504226540288    4.39569681291724   11.06824757167137
H         4.53400011980922    5.05771429302674   11.91752619738045
C         7.10604633302373    5.65741991393653   12.50027242488526
C         6.63663714955198    6.08278116169509   13.73838518360242
H         6.30612517712014    5.37653780290952   14.48639859942173
C         6.59153271714044    7.43792483235496   14.01887594471739
H         6.22768636070287    7.76803744308143   14.98059382052511
C         7.00843465462764    8.36586535153109   13.07923623823026
H         6.96910436104655    9.42011330983803   13.30879803885938
C         7.48071822100640    7.94366644221475   11.84591899325156
H         7.80956014023879    8.66523976870979   11.11306875236466
C         7.53565186959700    6.59396988735221   11.56063282972000
H         7.91019526526031    6.24636066917046   10.60449997490781

