73
CSD_code = ZIZQUU | q = 0 | S = 0 | Stoichiometry = C22H32Br2F6N4NiO6 | MND = 6
Ni       -0.00013074614623    8.73772599890041    7.80728602730507
O         1.63476777664588    7.95410741501069    9.37611019967888
H         1.19858544840023    8.01758003343850   10.23417562097235
C         2.27595483611505    6.69485416559705    9.29810233761586
H         3.04699881301444    6.60641748116439   10.06957907448955
H         2.74444574567611    6.63565823571984    8.31805431543957
H         1.56828056163527    5.86688598523869    9.40085000682457
O        -0.60443845139474    6.97609304065019    7.62049337077502
C        -0.30073856601749    6.02551596553223    6.85429880781276
C        -1.11110481488883    4.73560047867694    7.11016127119617
F        -1.80842051925565    4.32849974772621    6.04373468387661
F        -2.00033820757670    4.92434633677622    8.09012964274457
F        -0.33665172415890    3.71299164815679    7.50524304176381
C         0.66139905459557    6.01432578273290    5.86363737362053
Br        0.91444037695249    4.39956421086957    4.88497322707562
C         1.45785448972493    7.14970129783771    5.57292172406869
N         1.33008874108707    8.29262706512765    6.18201506318729
C         2.54912396941508    7.15862221804555    4.51607772655353
C         3.74124882078381    6.24681068517534    4.83539622926593
H         4.58384979943875    6.57751790053218    4.23085125523098
H         3.52655424848719    5.21020401678774    4.60063610085100
H         4.01367418174828    6.32500505131758    5.88627613341454
C         2.05414963076986    6.94943900937405    3.07925792028194
H         2.77675614653868    7.41683741014575    2.41183629650245
H         1.08444544492581    7.42080938237873    2.93165426528299
H         1.97914876336119    5.89747771591824    2.82860359037404
N         2.99610108791830    8.53290655589392    4.63675984368913
O         3.88707599591262    9.04256418363186    3.91312550835105
C         2.29146141745525    9.25212199069702    5.68056052292177
C         1.60646734896918   10.46791977834730    5.05135732854763
H         1.05136323694108   11.00400237074989    5.81050616992361
H         0.93758121241870   10.14678555180311    4.25386461512864
H         2.36689881963378   11.11906249478180    4.62968736722480
C         3.29976412769281    9.65353012605762    6.76097147051380
H         2.77347807524987   10.08595778211730    7.60286239375387
H         3.99735110291848   10.37541384595338    6.34715354527448
H         3.84833934532846    8.77785647154235    7.10021339333717
O        -1.63486293629241    9.52100777129118    6.23808611982170
H        -1.19698738269528    9.45912587965654    5.38079229982571
C        -2.27734589424767   10.77964165108440    6.31651055615165
H        -3.04659864071192   10.86855126910530    5.54333938346594
H        -2.74823560197148   10.83691893514981    7.29553822185457
H        -1.57011849504569   11.60833250964451    6.21674615420430
O         0.60397744765141   10.49960670622487    7.99396846390291
C         0.30019162489045   11.45007936605291    8.76027766005446
C         1.11029965586082   12.74015326828425    8.50440073553703
F         1.80786193133020   13.14717639051999    9.57070438142805
F         1.99928068921223   12.55167221772317    7.52414788969822
F         0.33561992960443   13.76272270064453    8.10970899501501
C        -0.66166163357569   11.46095938808250    9.75120788731262
Br       -0.91478263453211   13.07564444285781   10.72999258168286
C        -1.45774819720608   10.32536134670813   10.04214752248836
N        -1.33000349360414    9.18254934415229    9.43286547836968
C        -2.29103966545605    8.22280640162498    9.93449216117040
N        -2.99541562691129    8.94173657166104   10.97864842964827
C        -2.54875842515087   10.31614603018978   11.09926013194131
C        -3.74120862158581   11.22768408363765   10.78034718761245
H        -4.58361311474544   10.89661147009088   11.38497279289833
H        -3.52681022111122   12.26433076029858   11.01524317877743
H        -4.01377606698582   11.14957927573408    9.72949969562681
C        -2.05339248523652   10.52544126563738   12.53592877600347
H        -2.77584968338563   10.05809465547324   13.20345284161012
H        -1.08375842718285   10.05399097510493   12.68328698083443
H        -1.97826930812017   11.57735004816661   12.78651252057424
O        -3.88553720991186    8.43161720474894   11.70300372933097
C        -1.60559821392714    7.00705546478288   10.56326498776849
H        -1.05090238805507    6.47101303275301    9.80379585404919
H        -0.93625470684033    7.32826228588628   11.36034768151628
H        -2.36575515244736    6.35590139312967   10.98541137096166
C        -3.29967002651298    7.82147117087800    8.85434113052941
H        -2.77347840331376    7.39050539341336    8.01163590316130
H        -3.99624462261024    7.09842288875626    9.26780757796166
H        -3.84937958949103    8.69693701044395    8.51639527234026

