99
CSD_code = ZIZTAF | q = 0 | S = 0 | Stoichiometry = C50H36N6NiO4S2 | MND = 6
Ni        4.40111551922383   10.41967095658932    5.56840021349815
S         0.10092043377188    9.71357427675067    6.53361027762297
O         1.63644528193465    8.99584597039873   -0.63129071839152
O         3.84704317951065   17.12917352363671    2.38594109812219
N         2.73984839412039   10.49091985102156    6.30762875136459
N         3.64770256587179    9.66192021896572    3.89008996385104
N         4.06981564946696   12.71097553399446    4.70487061780918
C         1.61618415870597   10.14247102824117    6.36269072304703
C         3.95277867366873   10.21711899008464    2.71768965758280
H         4.64089376537983   11.04961381247998    2.73302870873235
C         3.43510196665592    9.77065309178008    1.51572986785416
H         3.69627858935987   10.25648140554491    0.58850994797251
C         2.57288297874482    8.67913898244620    1.50776507360291
C         2.25280620989603    8.10495343340192    2.73386525806702
H         1.56544412876429    7.27550994927925    2.79628793707571
C         2.80730031455355    8.62888854590007    3.88804717394488
H         2.55454855085898    8.19280156729420    4.84309693819349
C         1.98406338479016    8.20428275817306    0.21762725153886
C         1.85139535825553    6.74011727671125    0.04807675558967
C         0.87684907067826    6.26179014095575   -0.82777504133346
H         0.24513413493077    6.97496077825451   -1.33582222138612
C         0.72258470981846    4.90363070756941   -1.02497099982321
H        -0.04056454718965    4.53893004231203   -1.69572428814433
C         1.55247315596454    4.01066119463181   -0.36520877773724
H         1.43545545864508    2.94859526707664   -0.52087141736800
C         2.53966027206404    4.47921265710780    0.48775418169209
H         3.19462413491883    3.78182898630662    0.98876244003381
C         2.69073204519527    5.83686132493311    0.69963808061856
H         3.47614099509502    6.19693106315722    1.34840674206652
C         2.92215468768656   13.32947505476578    4.95790518120361
H         2.17323853537884   12.74708549352298    5.47687723294031
C         2.66903269474325   14.64353192215109    4.59880027991351
H         1.71384726095537   15.09473407454267    4.81953055436570
C         3.65930777170068   15.35813654632043    3.93159384889690
C         4.85163686095148   14.70178650991958    3.63986671003783
H         5.63421950045894   15.21722781464877    3.10517924761593
C         5.00915658817501   13.39022838531956    4.05199830967551
H         5.93172455211620   12.86175861802304    3.84547297350115
C         3.45763338243102   16.76627718355742    3.47502689531776
C         2.76088974981795   17.67452769992097    4.41516221981682
C         2.08420248326184   18.77623022900297    3.89241461574930
H         2.07859260681496   18.91802883049494    2.82197081668029
C         1.42818318220847   19.65472546560641    4.73223647517348
H         0.89653498496023   20.49954260211122    4.32097159078012
C         1.45786496762483   19.45290852336087    6.10328911869593
H         0.94801391128455   20.14049494920941    6.76155961595083
C         2.14835399907526   18.37362116593818    6.63209879811910
H         2.18076922438876   18.22594414104495    7.70148449912407
C         2.79573512486374   17.48330168368555    5.79580658908610
H         3.34705424244512   16.65383327429444    6.21491974804097
S         8.73049833631159   11.04680425318164    4.68842531841859
O         7.18259384169857   11.82432944360043   11.76339492272274
O         4.96171507185490    3.70857535511316    8.74599171745250
N         6.06120274204422   10.35795987601065    4.82482973698250
N         5.15459609996984   11.17329975121880    7.24720364055373
N         4.73235582923466    8.12609041725723    6.42586303310806
C         7.19883665668278   10.66304648385993    4.81250674876950
C         4.85572518478321   10.61177767613816    8.41815030204136
H         4.17007338963521    9.77725602358914    8.40192630367361
C         5.37697750795012   11.05406019063283    9.62011148192313
H         5.12092495101128   10.56304374947698   10.54602334798805
C         6.23597243747207   12.14806794860445    9.62972931020972
C         6.54898138824472   12.72938183090441    8.40514866392508
H         7.23341667678317   13.56133653933781    8.34401059012082
C         5.99142390056869   12.20924994720523    7.25075211610934
H         6.23812099148962   12.65080179146885    6.29661336858537
C         6.82814461714674   12.61869810007988   10.91994851169691
C         6.95595885182824   14.08256397833357   11.09602622759929
C         7.93191257441066   14.56044701299271   11.97055691781089
H         8.56816574756303   13.84729073996090   12.47292070543787
C         8.08140844203417   15.91822201678610   12.17402256922566
H         8.84547828987343   16.28264656522945   12.84387700995955
C         7.24547544656040   16.81111488220555   11.52182092738441
H         7.35888303177091   17.87286610331454   11.68223889298875
C         6.25696354834125   16.34283259284236   10.67025107925042
H         5.59736405749628   17.04003176739874   10.17510919226430
C         6.11052033352418   14.98565890460090   10.45218896478448
H         5.32409857337180   14.62568658954567    9.80459613839661
C         5.88020890027856    7.50823762647609    6.17175121029555
H         6.62865365891367    8.09053056582641    5.65216639194899
C         6.13478050340467    6.19450869608213    6.53093997548674
H         7.09022412149368    5.74429309728944    6.30934904083175
C         5.14590778216695    5.47920957350699    7.19944588335169
C         3.95333496338026    6.13465547255238    7.49207940423677
H         3.17151254104240    5.61888313645093    8.02753934567539
C         3.79428053116666    7.44597033470598    7.07981558252378
H         2.87117905147437    7.97304418254891    7.28736005494722
C         5.34956941041983    4.07147742195266    7.65639024037863
C         6.04706193532833    3.16389145820281    6.71616660951112
C         6.72679963865946    2.06410876579217    7.23898015718813
H         6.73388419826755    1.92309579068650    8.30951867136327
C         7.38382676011453    1.18645213984619    6.39906113859879
H         7.91787162293360    0.34316368295848    6.81035834408250
C         7.35210801205666    1.38716339832906    5.02789900835912
H         7.86285789779731    0.70030687446140    4.36956003820484
C         6.65853720697997    2.46446102004896    4.49905987325504
H         6.62461027343350    2.61126546874472    3.42959693041606
C         6.01016751169378    3.35398331494669    5.33543046095400
H         5.45653011475549    4.18194394644122    4.91637438622774

