43
CSD_code = ZIZWAG | q = 0 | S = 0 | Stoichiometry = C12H18HfN2O10 | MND = 8
Hf        2.69795493815115    0.23253415154025    3.09273900088188
N         2.59122012991057   -1.95741704081394    4.02780204456257
N         4.38395364883740    1.68685481314794    2.22358609009546
O         4.00569473700507    0.12192060337822    4.53361695763390
O         5.76924892325211   -0.98271822605932    5.30587556819818
O         1.07407024426074   -0.62058849589106    2.33608378210778
O        -0.02123730873790   -2.43752590051910    1.66899370026199
O         1.10340476859387    0.16146757593776    4.87638767366385
O         2.14045815551343    2.04934199469992    3.62935496553912
O         2.63523243381442    4.18527634800910    4.00340746356146
O         3.77742566803994   -0.73053520304406    1.76093973319216
O         5.85261499218850   -1.47477267153882    1.49588859110884
O         1.89701208111904    1.37717358201251    1.08297224047287
C         4.68357968517577   -0.95131689714989    4.77540775781779
C         3.99423920981111   -2.25625358665784    4.29659280395086
C         0.89317045106972   -1.89262994031202    2.24377035473071
C         1.97962222539029   -2.74321228533478    2.96198002924808
C         0.59289035165704   -1.12679458546244    5.20015285147191
C         1.82173967656378   -2.03069222312836    5.27440557939288
C         2.93360097129178    3.06164180905488    3.66840412492201
C         4.39454029042407    2.74273459806903    3.23086011890382
C         5.06582365307872   -0.60219011740175    1.78068061889886
C         5.54929341257530    0.80698803668973    2.21173531563679
C         2.65631818352225    2.50704223901045    0.68067135149134
C         4.14582797607276    2.21170415790852    0.87451238100718
H         0.38168925165825    0.76739511524779    4.65493381075072
H         1.92207107193117    0.70144035841260    0.38888215566203
H         4.13237118954526   -3.04314843728422    5.04865548554877
H         4.51206862135767   -2.57498409622525    3.38776096177550
H         1.53482422226759   -3.68123716175798    3.31937395559666
H         2.72612023124257   -2.98173814787233    2.19957117752967
H        -0.11690327149255   -1.47914165120741    4.44227326715269
H         0.09143188862625   -1.10206960104321    6.17693263226789
H         2.45393515518288   -1.65446253803844    6.08430845422014
H         1.52343259811013   -3.06464567213537    5.49866927670164
H         4.88543210032145    3.66215609878682    2.88548198992840
H         4.90189341634813    2.38735957281295    4.13192454443363
H         6.34280027912965    1.14852032395880    1.53476249626029
H         5.98754863157663    0.71098897755595    3.20833094181958
H         2.45216783543373    2.76958766206135   -0.36349340453804
H         2.33368173946504    3.33406557667156    1.31942333648065
H         4.73856669400090    3.11902053533055    0.69022426542583
H         4.44396884670863    1.44476034858281    0.15166355423128

