42
CSD_code = ZIZWAJ | q = -1 | S = 0 | Stoichiometry = C12H17N2O10Zr(1-) | MND = 8
Zr       -0.22277759493465    0.31494845024407    3.25253441221987
N         0.48448508577446    1.87807688213302    1.52754931713517
N        -1.99685383222914   -1.09288486026293    3.86541686190768
O        -1.42456792950067    0.10801993131572    1.50137101706932
O        -2.26872305833145    0.81737504620830   -0.43855965729300
O         0.78342086423446    1.89861723132953    4.16273247548601
O         2.45195221058848    3.39123478631937    4.08387760107234
O         2.20095160065679    0.03818784916387    2.80511495011234
O         0.26631293379084   -1.55788666789123    2.33945360838247
O        -0.01170503980255   -3.75097445855741    2.57975594850133
O        -1.79872493899140    1.53455744288732    3.74990626966293
O        -3.93791283180077    1.84426940610989    4.29169742009878
O         0.46276006751011   -0.62399282171144    4.82309048210030
C        -1.55698116687309    0.93149864295319    0.54610414605003
C        -0.68722133122133    2.21138006845923    0.72502332822734
C         1.52679552547446    2.75441466956559    3.60655217591620
C         1.11688187436787    3.05784873003865    2.11420612715718
C         2.61547660281258    0.62204569393577    1.59295911176093
C         1.42569114977063    1.08352174501533    0.73607864093440
C        -0.40561867647281   -2.59844058111998    2.65686603992635
C        -1.87646126144008   -2.32781343802079    3.09783199769740
C        -2.99793638241595    1.15026334349371    3.94288055204326
C        -3.24226554613560   -0.36792269493300    3.65874962564407
C        -0.25680246534482   -1.58495772977994    5.48230659349057
C        -1.76091929242001   -1.30555766360448    5.29205934104802
H        -1.31435704481896    2.92160087013608    1.27418892779655
H        -0.42449002038538    2.64245657802202   -0.25545359498068
H         1.97601589138812    3.41807972335900    1.53062283337196
H         0.39051980285482    3.87326016167748    2.18301780730764
H         3.23914650194952    1.47832689520942    1.87651144655227
H         3.23014508372788   -0.07876159817376    1.00571301024305
H         1.80694318142942    1.66570802208903   -0.12609535476855
H         0.89319657868162    0.19942777683412    0.35692124679930
H        -2.25885500810869   -3.20329287994713    3.64634863442005
H        -2.43336992703404   -2.22581601498512    2.16118851302770
H        -3.54300883836375   -0.42971270884972    2.60826050117750
H        -4.06563784877776   -0.74179974972679    4.28850094353338
H        -0.01884536872415   -2.60189397756049    5.10010446951507
H        -0.02177307480842   -1.58015285360737    6.56664688208512
H        -1.99819736688412   -0.37112278551126    5.81895358816183
H        -2.38850014356017   -2.12655251258342    5.68698734951675
H         1.80461103436502   -0.84448394967267    2.63632440989045

