62
CSD_code = ZIZZIR | q = 0 | S = 0 | Stoichiometry = C29H26Cl3OP2Rh | MND = 6
Rh        3.21835044247315    2.56985285881985    3.67864050648089
Cl        4.49732820060628    3.82104641942133    2.16811383437797
Cl        1.98570152869699    1.16049409187062    5.11146860604457
Cl        1.59831426051520    4.20539079820983    3.80244629343897
P         1.88349530404105    1.62427901041048    2.03253832121246
P         4.14401781746893    3.89601628331321    5.33571906658094
O         5.15747928194430    0.31616620779407    3.92636168490695
C         4.46271748153257    1.20329866719699    3.75829469489791
C         0.12777489402107    1.71102635536597    2.44198111330505
C        -0.80701479978228    2.14756624721683    1.61226966486786
C         1.98273146614118    2.33938789580798    0.36676380783695
C         2.10726818552809    1.56030372709566   -0.77780491647362
C         2.15272647023498    2.16906431145326   -2.01974009559269
C         2.07402370170109    3.54781986271246   -2.12545287349422
C         1.93901586408747    4.32471972957541   -0.98585895033094
C         1.89198169338267    3.72560762709103    0.25852839281597
C         2.22370945119026   -0.14281469976708    1.80628626404591
C         1.30402502942555   -1.13166595924133    2.12812314210205
C         1.65212273083505   -2.46416116836252    1.98338728460718
C         2.90868273743836   -2.81166691433195    1.51778442127966
C         3.82826811648721   -1.82529541174108    1.19273943868627
C         3.49025480893667   -0.49484692662921    1.34200803333985
C         4.36210207739406    5.60590199747353    4.79963553667320
C         5.46645039143573    6.30854315015865    4.99640642214156
C         3.10344652027998    3.98415233890754    6.81439276749111
C         2.35247962893788    5.11534528039404    7.11065291386083
C         1.51910273092913    5.11274285401375    8.21527720503603
C         1.42770270999180    3.98766653736675    9.01757160454060
C         2.17307311983932    2.85731225257935    8.71979394972520
C         3.00770480529937    2.85054123963282    7.61918585021278
C         5.79686309756282    3.44152893293931    5.94677513843376
C         6.74862350699509    3.07546380693461    4.99774755706143
C         8.03341433208253    2.75233081696641    5.39151717506259
C         8.37601886556605    2.79105109466640    6.73418953547897
C         7.43566891591892    3.16728218206750    7.67884169908793
C         6.14864605863095    3.49731673019583    7.29045163218987
H        -0.10191089665294    1.41370952163017    3.45930604801520
H        -0.58059187050435    2.47937627111330    0.61127171283119
H        -1.84117874564533    2.19992540263835    1.91303953689789
H         2.16602622654168    0.48385079964188   -0.70076211598525
H         2.25175130014891    1.56243923817492   -2.90818702760014
H         2.11747817737316    4.01662064865371   -3.09754519429557
H         1.87513909060631    5.39950693359637   -1.06667333642412
H         1.78765911169475    4.32607189263550    1.15182851252892
H         0.32508419131376   -0.85928390574421    2.49347886261117
H         0.93895702889567   -3.23382426194887    2.23907653195469
H         3.17580525507682   -3.85246199952252    1.41052049785371
H         4.80895782367159   -2.09595454461256    0.83023154515008
H         4.19954869978540    0.28761935627887    1.09610407517032
H         3.51513151691374    6.01174148519684    4.25771052601677
H         6.32702978008091    5.90428525753760    5.50518507798257
H         5.55300459238303    7.32312384368606    4.64195845036882
H         2.41384794436159    5.98607307555794    6.47459048978073
H         0.93233541879052    5.99009417538616    8.44457763524778
H         0.76861553640332    3.98781481211868    9.87328857009241
H         2.09441721824509    1.97648125587767    9.33957928535065
H         3.58195974855251    1.96771190906246    7.37065371872705
H         6.47539595348980    3.06286086321605    3.94976435982673
H         8.76804444964347    2.46973820237633    4.65225896270484
H         9.37759201019965    2.53190030751541    7.04377558105280
H         7.70475536523256    3.20644815272863    8.72422567607881
H         5.41957364541441    3.79836307950379    8.02920529613757

