45
CSD_code = ZOBHOP | q = 1 | S = 0 | Stoichiometry = C16H24AgN4(1+) | MND = 2
Ag        2.96195409845132    6.32454008710329    0.84477677944760
N         2.39732383419506    6.87047023864319   -2.28575380444369
N         1.93080131391082    8.58124935843081   -1.08906140784424
N         3.47230184357768    3.56379539639844    2.31107122504117
N         3.99259930476356    5.14939733614668    3.64979074675669
C         2.43361306707267    7.33174651137195   -1.02074540856438
C         1.88128554255037    7.81111278381317   -3.12941727327102
H         1.76543654371551    7.64375524552899   -4.18016158141870
C         1.58980992271021    8.89703670028735   -2.37291488382887
H         1.17800602422907    9.84618549680944   -2.64695330134311
C         2.78327974078091    5.53935451869742   -2.68408440331954
H         3.62222570139723    5.22522928730035   -2.05295601750756
H         3.11429261799500    5.56845524572440   -3.72429050333672
C         1.61935717039978    4.56436758264080   -2.52564683313290
H         1.93114397684504    3.56476730466232   -2.81307242398449
H         0.78288158862956    4.85978828963099   -3.15440733522469
H         1.28746718332117    4.54661111054719   -1.48731884668022
C         1.81412831913749    9.47841656757978    0.03772100633085
H         1.06795153183542   10.24017890802664   -0.21249755203129
H         2.77270717093661    9.98114421996558    0.21032516257939
C         1.37930110703126    8.75661187843192    1.28008469708861
H         0.45492445770597    8.19842804138521    1.18936299472676
C         1.99361893448844    8.86462108726140    2.45012075980848
H         2.87155263424120    9.48020554567837    2.56994673521827
H         1.60428727920090    8.39977437615530    3.33991254786567
C         3.55211615511781    4.90785360209636    2.40009264607776
C         3.84385662776955    2.97827152973860    3.48717407923785
H         3.85423676212123    1.91708704538702    3.62603502958643
C         4.17377900149376    3.98189248963969    4.33499577481244
H         4.51735994135508    3.95649563561042    5.34819649455872
C         3.00550686009158    2.83596005911694    1.15719020557865
H         3.52091952181664    1.87360563153396    1.12020461367578
H         3.26536756846211    3.41487540997122    0.26250612195756
C         1.49528362886431    2.62379549041894    1.21760601560698
H         1.16151352726059    2.07685001370731    0.34113167263598
H         0.98395721887911    3.58589359360788    1.24824786792485
H         1.22238577589483    2.05596336520470    2.10372115610688
C         4.21377042661848    6.44892816474800    4.22472983761290
H         4.30477355051800    7.17400241123901    3.40507550865477
H         5.16232373303432    6.43952693479715    4.77244770485595
C         3.11368304520246    6.88416358343643    5.15542545446852
H         3.34046441291237    7.79074745800994    5.69841722893688
C         1.96335955220001    6.26236560267953    5.32850704122134
H         1.70779983825650    5.35547826910043    4.80452302617049
H         1.22329194301202    6.63290059174492    6.01524144139755

