75
CSD_code = ZOBKIN | q = 0 | S = 0 | Stoichiometry = C29H40AuN3O2 | MND = 2
Au        2.61131372909126    4.33798993407389    4.23498282423521
O         1.95026754523350    7.32129874002383    3.16385090683882
O         2.29765973766097    7.65434997272406    5.25969837991838
N         1.24776446234828    1.91640962210824    5.42901466484845
N         0.69438211949633    2.16613998294768    3.37762134455560
N         2.58465002223947    7.10957012094861    4.20065727359764
C         1.48187817791474    2.66800297135779    4.34125163139296
C         0.32337901047138    0.94438354729638    5.15146894158169
H        -0.00057051157831    0.23851496237795    5.88769831366133
C        -0.02684586158482    1.10331629319490    3.85208706166328
H        -0.71242937477835    0.55836894713634    3.23670048009585
C         1.86483367957893    2.14697876849084    6.68896113199648
C         1.22617867078488    2.98176389776992    7.60799063846025
C         1.85672346705387    3.21032872994713    8.82379331114766
H         1.39258893620118    3.85677042544470    9.55155748212643
C         3.07747553419098    2.63011181272507    9.10883328805905
H         3.55480619121738    2.82193947116883   10.05802835470985
C         3.69622762321751    1.81448236801240    8.18085985615039
H         4.65552070808432    1.37891884136569    8.41208037718270
C         3.10272253168985    1.55868066076541    6.95244587653461
C        -0.09415964142455    3.64489694315399    7.29559160822261
H        -0.45368722598060    3.29552865338290    6.32217404542273
C        -1.15339222452792    3.27442594268941    8.33666687953695
H        -0.88904401127788    3.65914222861616    9.31767492134457
H        -1.25957194486194    2.19343126921301    8.40861123663188
H        -2.11429938868086    3.69758313597169    8.05343811890521
C         0.08355882754172    5.16278594700861    7.21300276173118
H         0.40761571001456    5.56972867287974    8.16670819166214
H        -0.85743157107995    5.63460529519683    6.94079267965389
H         0.82688070171571    5.42645579666129    6.46330985189542
C         3.80249870965701    0.69970712860264    5.92584535937231
H         3.14104868087251    0.55455595211512    5.06587364543944
C         4.14070420521664   -0.68113175864586    6.49078750922092
H         3.24531355273501   -1.16784253265463    6.87216058292064
H         4.86195515694631   -0.60815214251486    7.29990250166016
H         4.56787336520442   -1.30680934457699    5.71041915110762
C         5.06126355903812    1.41470114767620    5.42913599315829
H         5.76833180181056    1.55981596017834    6.24149023555624
H         4.80083911181291    2.39008058009603    5.02067064178379
H         5.54375216106142    0.82863618699004    4.65053972870975
C         0.61758729526368    2.70601477018461    2.06364557751636
C        -0.20150019185290    3.81491449365158    1.83789138302178
C        -0.25758356557077    4.32348716330268    0.54757798457545
H        -0.88281871132915    5.17545379109323    0.33817487665006
C         0.49125337546424    3.76171064762895   -0.46831958588786
H         0.44300613099320    4.17811875626424   -1.46326199290373
C         1.30988544055758    2.67682586986463   -0.21811623751730
H         1.89991598561717    2.26076962841040   -1.01899886139305
C         1.38432639639090    2.12417433323029    1.05269336471595
C        -1.03235243315043    4.41589889406945    2.94660841655423
H        -0.60372049563404    4.12035003791092    3.90981008849074
C        -2.45814493767894    3.85789338586018    2.86514161222207
H        -2.45909911042613    2.77306913498062    2.96057204491528
H        -2.91117107423851    4.11801495175494    1.91115528708768
H        -3.06871417875000    4.27477069049226    3.66271236208169
C        -1.04792517607025    5.94338677997909    2.90802176531509
H        -1.62803518783142    6.31382462071541    2.06722485425057
H        -0.03945424637230    6.34536206882529    2.83660033820231
H        -1.50145439009730    6.32485907846413    3.82004754349809
C         2.31574897361910    0.97101937279608    1.34802406581592
H         2.02830794650934    0.51322412369555    2.30063709383667
C         2.25143506010848   -0.12048593964408    0.27904766524686
H         2.81809602057603   -0.98975563568797    0.60563028121074
H         2.67548662240342    0.22131244217350   -0.66076523213240
H         1.22188394694172   -0.42538492948532    0.10377178587800
C         3.74241640463400    1.50883091407196    1.49315292682133
H         4.42746223842530    0.70039122087233    1.73855980345398
H         3.78672747908375    2.25785814726570    2.28238606979354
H         4.06828606761517    1.97130113903944    0.56487656929779
C         3.63408975519103    6.15830027349339    4.15945758385193
H         4.10317036678246    6.24143197594012    3.17628937395494
C         4.64467458395265    6.38312129105223    5.27554699535176
H         4.16929874346451    6.29180128276121    6.24950882126624
H         5.08675108559391    7.37966718204402    5.21290889387052
H         5.44208784540252    5.64640291128219    5.20610869863167

