81
CSD_code = ZOBKAF | q = 0 | S = 0 | Stoichiometry = C35H42AuN3 | MND = 2
Au        5.14086081729769   12.85790858726356    7.91853648062980
N         7.37180049353917   11.31046811084131    9.02714979201264
N         5.71363167912860    9.96307993570825    8.91794452870819
N         4.38189296100784   16.07223825029128    9.37399038006476
C         6.08213838244672   11.22788505271180    8.66073056342849
C         7.81457492734978   10.10949097432347    9.51003080188750
H         8.81861241082419    9.96352246049705    9.85071375218235
C         6.76523864957497    9.25462275851448    9.44116558923420
H         6.67703304012236    8.22322964362021    9.71319136147734
C         8.12173523216362   12.51544301025472    8.91813730697049
C         8.06178418078338   13.44261601703691    9.96192684832747
C         8.78992288994094   14.61619603155103    9.82802339150356
H         8.76822233445062   15.34955082262343   10.61768700358998
C         9.52814284868466   14.86543509905507    8.68671659707437
H        10.07891076322931   15.78956987007680    8.59618777925017
C         9.55349322398683   13.94627388724872    7.65622239163546
H        10.11613905016449   14.16320490616623    6.76226404681723
C         8.85243817092855   12.75232299991899    7.75285164932403
C         7.25615985697374   13.16931329198676   11.21009025739128
H         6.54707944820878   12.36030027319285   11.00474751628584
C         8.19660382996718   12.70916400363193   12.32964904176293
H         8.92483699739725   13.48519919375687   12.55430814423933
H         8.73551077081441   11.80833406463515   12.03971499662655
H         7.62906637017247   12.49616791712566   13.23271004232224
C         6.44296764349013   14.38502759253607   11.65526379946278
H         5.86059574686994   14.79381865679924   10.83181447088980
H         7.08556886772404   15.16986600979635   12.04536350653815
H         5.75508666022227   14.09376907152760   12.44611116725765
C         8.86154002470222   11.76616853357136    6.60891834485966
H         8.31977722910922   10.86179451809570    6.90660186973434
C        10.28894432375779   11.35117382701423    6.24561029126262
H        10.26793806736115   10.58031053877275    5.47836908490274
H        10.80724112272217   10.95671971163650    7.11771764803586
H        10.85516114739718   12.19557136406229    5.86294123949396
C         8.14018750329985   12.36707013816957    5.40054641595724
H         7.11917335131150   12.63699691639545    5.66399820691016
H         8.11164119849615   11.64885747742222    4.58413469376318
H         8.64219597783069   13.26634713599907    5.05468052977255
C         4.40696461867895    9.45579660935929    8.68314697518935
C         3.47206106629328    9.50037511544886    9.71950395462126
C         2.19216879947645    9.03041691442905    9.45928900244444
H         1.44250926362218    9.06290225710121   10.23347482184910
C         1.86203402967095    8.52929470048304    8.21440597214566
H         0.86079055582816    8.17012691208730    8.02916633553239
C         2.80292910941657    8.49329222595935    7.20359675794186
H         2.52718696379638    8.10817175217444    6.23459147103936
C         4.09410057485395    8.95669456821286    7.41800456259236
C         3.82388301617004   10.09003168362488   11.06514961590197
H         4.91319411640577   10.16487716897213   11.14948662928036
C         3.33562535420655    9.21668718246976   12.22221219042101
H         2.25171744598916    9.22498542566885   12.29339539396885
H         3.73571960896351    9.59341562963098   13.16072410806134
H         3.66667830010379    8.18809866008461   12.09362206625257
C         3.24179025579455   11.50308578265627   11.16680157705041
H         2.15842237074753   11.47521017214725   11.08149375801949
H         3.63137666382190   12.13794525674884   10.37165488023503
H         3.50301311862985   11.94921252491951   12.12330147596435
C         5.10960390798845    8.94985194344671    6.29981263628820
H         6.08785922261822    9.23354769252368    6.70087784678760
C         5.25065382561359    7.55920327818754    5.67799850022064
H         6.05644251353060    7.56122807154085    4.94744488894068
H         4.33694934938894    7.25937815390722    5.17253148290441
H         5.47957756033649    6.81924989737620    6.44244723749102
C         4.71999043103779    9.98674154966695    5.24352097919805
H         4.65816103166996   10.97686030391695    5.69382487462444
H         3.75483733820690    9.74564024656052    4.80560671181516
H         5.46418688501840   10.01335132986781    4.45117913966348
C         4.45711233938313   14.68469990197173    7.21243754161180
H         3.46063004871074   14.61373751758770    6.76989142115415
C         4.40422283702505   15.47404478081079    8.38916714752777
C         5.45853049737619   15.15590898101778    6.22152166746132
C         6.64603431471921   15.77002861601421    6.62472415434671
H         6.81952932495524   15.93896136347196    7.67919684514763
C         7.59254126354325   16.15882656833057    5.69962964732503
H         8.50136219879600   16.63899628448279    6.03611381423776
C         7.38385457786233   15.94078630703208    4.34687356478115
H         8.12657959272992   16.24444015873778    3.62275726221210
C         6.20942888068784   15.33536652739557    3.93223535195214
H         6.03210760733829   15.16451794338620    2.87902181034068
C         5.25757932203937   14.95163493580256    4.85640448558106
H         4.34261170394170   14.47974845102152    4.52099790835545

