92
CSD_code = ZOCBIE | q = 0 | S = 0 | Stoichiometry = C45H39CuN2OP2S2 | MND = 4
Cu        6.62372004216561    2.38017328211821   14.91217910382625
S         6.65815602927511    0.10976179422212   15.30473579672337
C         5.33943309238337    0.25070620701726   16.36103878563166
N         4.64740303965104    1.31347993947344   16.66344679539313
N         4.90498909119938    2.44782564708484   15.95776148130999
S         4.95319083761511   -1.25953708588706   17.14436606306828
C         3.45319992849392   -0.92852060790689   18.11574960264895
H         3.68723957355666   -0.26522472701144   18.94082573007574
H         3.12771673232273   -1.89506534882787   18.48675780959519
H         2.69359759393421   -0.49550353437412   17.47445757867540
C         4.47271024830708    3.60957125755230   16.32845870260751
H         4.73051104340415    4.37973350013939   15.60693983571283
C         3.79871031363305    4.14431583525632   17.49342815673366
C         3.15713433539171    3.42247601959940   18.52452744574826
C         2.58420128174804    4.11756001322273   19.59295076775637
H         2.09926016760702    3.53345110218650   20.36021250707162
C         2.62926831510527    5.49140530965749   19.66521443003190
H         2.18065467644332    6.00182811205392   20.50430684155571
C         3.24881761209675    6.21467745284645   18.65357242274172
H         3.28839725042930    7.29252909194819   18.69785400141894
C         3.80890430476958    5.54664404913597   17.59051407637000
H         4.29198132162059    6.10976866477649   16.80359169439072
O         3.03901511718427    2.09337538163514   18.54060847953225
H         3.59738705123537    1.68826148673995   17.80724655450133
P         7.22683976924249    3.17389042533397   12.93386097122802
C         6.75672359121407    2.26513636801922   11.43088494679308
C         6.41478977922161    0.92400149287365   11.56954465947378
H         6.43537273914041    0.47140671231409   12.55306110014049
C         6.05374959201306    0.18738672642190   10.45527448108085
H         5.79003416945752   -0.85434323110813   10.56127062610495
C         6.02730702664613    0.78913768251274    9.20790505411281
H         5.74235776107756    0.21563795994171    8.33801135219468
C         6.36202657034918    2.12814819863849    9.07050816377311
H         6.33744730387470    2.59366373644392    8.09579621518536
C         6.72663974455146    2.87046132065921   10.17775706364879
H         6.98789080250322    3.91530674970579   10.07785910187691
C         9.01115226640017    3.44170478244997   12.72553417822245
C         9.64092441243784    4.35884570957692   13.56639813972432
H         9.05056546089475    4.93528034562496   14.26742200911905
C        11.00955862023456    4.53134876279165   13.50841858510555
H        11.48851273044002    5.25212358408858   14.15469647736181
C        11.76680982395918    3.76922938157316   12.63303026746445
H        12.83793761527332    3.89971836942293   12.59251748997942
C        11.15037126909749    2.83407058301070   11.81891217820754
H        11.74170975558961    2.23089685720823   11.14546265967432
C         9.77794654941108    2.66542869298406   11.86310157878733
H         9.29898345686626    1.93159567867418   11.23024551945493
C         6.48124397385236    4.80384854064853   12.62624931803656
C         7.16595954081128    5.94057030238223   12.21363650594169
H         8.22695458200278    5.89341868201225   12.01226056358604
C         6.48244537895474    7.13488471488522   12.06140586741709
H         7.01607069858372    8.01783087813906   11.74044458218210
C         5.12288587744768    7.20296913704299   12.31739146041077
H         4.59857551234802    8.14005326858421   12.20184496113847
C         4.43439650980374    6.06882377202441   12.72093082541869
H         3.37387310886924    6.11974136322519   12.91947248342657
C         5.11150443722273    4.87523241489160   12.87649783157745
H         4.59474485412283    3.97821169303662   13.19668475629671
P         7.96184620612818    3.14106373461960   16.64375605931721
C         9.75248131647461    2.89652290474606   16.42661130124721
C        10.11769956266503    1.83428417449493   15.60167967847365
H         9.34369118416427    1.21927236293374   15.15647133022020
C        11.45115042959847    1.57876201708148   15.34847609843961
H        11.73024168864063    0.75230133212443   14.71186395456420
C        12.42591641833349    2.39223944252806   15.90350672700175
H        13.46942704997475    2.19832415715642   15.70306439326427
C        12.06428342393785    3.45942237500005   16.70912351384630
H        12.82634452661032    4.09645236478868   17.13525619419238
C        10.73078114268104    3.71736971660687   16.97259520032152
H        10.45236599684129    4.55678502153409   17.59409569387141
C         7.80043221800160    4.85261841148316   17.24494704650526
C         7.29882799961743    5.78293830045051   16.34007836517673
H         7.03794117274502    5.45649199927960   15.33909729902588
C         7.12020742189336    7.10139694558993   16.71589098246730
H         6.73004860137894    7.81688985997803   16.00604881226624
C         7.43393470695239    7.49591054620675   18.00583437372777
H         7.28893860028858    8.52281866780579   18.30702432089698
C         7.92796087833768    6.57271228225609   18.91435897711835
H         8.16854260329500    6.88295409032573   19.92090172603814
C         8.11228353387826    5.25437425664034   18.54054734080427
H         8.48821265324371    4.53186190112659   19.25237733901101
C         7.57886998253993    2.14456161572132   18.11182188160811
C         8.16852158785165    0.89434118439166   18.28068602994805
H         8.97632810092283    0.58769521178460   17.63082309620333
C         7.70628301660677    0.03996450337285   19.26415675378589
H         8.15965397364395   -0.93297532462283   19.38256411400934
C         6.64933519842678    0.41734431869059   20.07623323533104
H         6.27935427198453   -0.26151090977301   20.83053240545413
C         6.05886671528025    1.66002457769155   19.91169989877131
H         5.22751921176205    1.95629558483563   20.53495647926589
C         6.51436314747010    2.51926296622365   18.92990632403485
H         6.03874117461376    3.48147490803221   18.78987641648225

