62
CSD_code = ZOCBUO | q = 0 | S = 0 | Stoichiometry = C28H26MoO2P2S3 | MND = 9
Mo       -1.38874061265290    3.82961919075491    3.65168263630640
P         0.82829054763945    3.19885638963029    3.08021645242342
P         0.56548917055871    0.88508646127064    5.19358340363949
S         1.87898766813537    2.60638262721267    4.76956815692437
S        -1.20553282395264    1.36247717966892    4.22757299796719
S         0.33087305987926    0.57637155697036    7.10153716634715
C        -0.69856698572484    4.86814432041478    5.62117486070774
C        -1.24606277761213    5.83345390274011    4.74803501535489
C        -2.62036938475019    5.51908769957832    4.55541961506986
C        -2.90410346337867    4.35128496927370    5.30486838191278
C        -1.71955803815491    3.96479789237784    5.96923310910693
C         2.37267441669010    5.49374032277640    3.39682377773126
C         3.07930771753175    6.58729896559427    2.93295814724675
C         3.28102755232989    6.75663473143004    1.57246501625824
C         2.77991616291443    5.82804593479219    0.67476761011914
C         2.07558473483547    4.72946162450374    1.13165168228340
C         1.87417967379972    4.55636397971544    2.49762902334285
C         0.21130707889912    1.24920559864376    1.16736687309451
C         0.53589973532966    0.21505363640543    0.30615478599256
C         1.85156170263171   -0.19677130188624    0.17745679851821
C         2.85383599467644    0.43010225701429    0.90145684289588
C         2.53942433132280    1.46074181053059    1.76433029614372
C         1.21395056777617    1.86723096135537    1.90263388626488
C         0.80446918818367   -1.39504726980130    3.52265550454758
C         1.55450235925425   -2.28970397249951    2.77313860374810
C         2.93823963804207   -2.31570082710248    2.82653508868698
C         3.56711579377197   -1.47457565977908    3.72996594156831
C         2.86187534449854   -0.55778138915112    4.49578895248302
C         1.47463295411147   -0.45970743680350    4.31984166850229
C        -0.68415361032258   -1.53164981925878    3.48763884925488
C         3.72834466830230   -3.27692951198894    1.99435806290357
C         3.63222032839148    0.22746129734004    5.51240966951902
C        -1.10672721793800    4.55564310363607    1.88589542844971
O        -0.96668609036181    4.92785388837566    0.80409454780852
C        -2.61363673453253    3.05243754289343    2.37634507143888
O        -3.34969617749063    2.65407116590866    1.59111937678492
H         0.28086706994383    4.90637095239662    6.08080974843650
H        -0.75873571632402    6.74566649836876    4.42529091971864
H        -3.35180668668767    6.16154756845605    4.07984417182295
H        -3.88685299543281    3.93395799055289    5.48035074622710
H        -1.63660647888745    3.17503673723241    6.70752888234405
H         2.22147438587878    5.35075979705880    4.45831646693972
H         3.47219902659094    7.30961550303152    3.63318916864961
H         3.83041861086933    7.61335795015764    1.21182095044317
H         2.93593229422959    5.96029528427298   -0.38536130233186
H         1.68033111230439    4.00342775898248    0.43393958226204
H        -0.81657388484094    1.57687146558557    1.27863862820454
H        -0.24318725096280   -0.27087680738686   -0.26192852631316
H         2.09905017714795   -1.00815161927266   -0.49024531694609
H         3.88000101148473    0.11210317648301    0.79640025523654
H         3.31174061222842    1.95540490499131    2.34014831698515
H         1.03400942559257   -2.99458085109931    2.14029877107093
H         4.63911226691405   -1.53547298650596    3.85606898694000
H        -0.95036998171843   -2.56298073212621    3.26419626224647
H        -1.12167963501711   -1.26212940356133    4.44796138614872
H        -1.12302330710446   -0.89491642638706    2.71982580018609
H         3.15686514342127   -3.60154805279240    1.12838773935026
H         4.65832982649458   -2.82313893885228    1.65853365160700
H         3.98146988624236   -4.15849174150610    2.58383396386300
H         4.36250750931810   -0.42544165871931    5.98790786351050
H         4.17391036664919    1.05137808446463    5.04896596069893
H         2.98464073914827    0.63189372367393    6.28700362129171

