81
CSD_code = ZOCBAU | q = 0 | S = 0 | Stoichiometry = C30H46Si4Ti | MND = 12
C        -1.61568814506261    9.37462577174224   11.50544645679470
C        -0.77523970720743    8.55465247816811   10.83612589351681
C        -1.04891536461128    7.36541876838508   10.19110027056036
C        -1.13528025879231    6.29551185487982    9.60725825615259
C        -4.07072389258501    7.49406656555598   10.85621380466681
C        -4.44566527979048   10.55442922193835   10.94978439226561
C        -3.88170395967616    8.93239843232416   13.58365291195005
C        -2.79547691937650    3.73031394901213    9.38479904695002
C         0.31045162058357    3.68034675716593    9.01378708559899
C        -1.49477427251952    5.03239772312610    6.85350446200114
C        -2.44843400258345   12.27513649583453   13.41343850690770
C        -1.77838784830402   11.46701103588250   12.80766551953699
C        -0.97125182214419   10.54678687562664   12.09955828466643
C         0.37387258212073   10.72247819683557   11.96005239345621
C        -4.28408161149375   14.66819218311936   12.98975534329101
C        -4.82386949165980   12.62900407303513   15.30046001517700
C        -2.34369040287111   14.55007457548642   15.44183676097317
C         0.98371887070911   12.22973647420103   14.66697605104172
C         0.48456999309509   13.87054815155002   12.07627196200856
C         3.08813320044819   12.27852048576571   12.42904718623562
C         2.63231348281484   10.12745581379941    9.29267196939178
C         2.21925934222612    8.90729591973978    8.71421076315825
C         0.84399562579736    8.98537100992013    8.45855540238991
C         0.38894012636977   10.25085573543340    8.88879038587102
C         1.50331571833787   10.96641479959338    9.38783136214261
C         2.91584398660508    8.79625072752432   12.36314485966657
C         3.05118300243507    7.81620287924050   11.36357496827500
C         1.90404782131120    7.00414425096463   11.38117935154047
C         1.05971355650369    7.46370458151682   12.41493050514263
C         1.68438639061063    8.58126884752175   13.02285571588856
Si       -3.48364351540963    9.09150231431758   11.71987851093083
Si       -1.28677665354972    4.68696397928967    8.71929543336082
Si        1.19606927701201   12.22505642886198   12.76139321303892
Si       -3.47900957102341   13.53316238029051   14.29535044465463
Ti        1.17926425861555    9.18736253805665   10.84072710790086
H        -3.86855141156180    7.51428533194683    9.79080186215554
H        -5.14143209681098    7.37051002443752   10.98852405662378
H        -3.58308302553837    6.61360601456175   11.25994002197474
H        -4.27154088470963   10.62362922955958    9.87984865474212
H        -4.15258746433244   11.49819512363284   11.39672690357103
H        -5.51388939003327   10.43175993647761   11.09995098171831
H        -3.35394530720983    8.09502628837938   14.03126081542278
H        -4.94406111589491    8.76971138813849   13.73757346045093
H        -3.60069271146946    9.82987764677148   14.12391147043340
H        -2.92835909604548    2.78386391303654    8.86822382005402
H        -3.70763267080302    4.30558052106230    9.25933474092534
H        -2.68840987508786    3.51484313467587   10.44375382194309
H         0.26608839533548    2.71127518337390    8.52471751753965
H         0.47467811972767    3.50470493919727   10.07319707341670
H         1.18204166858235    4.20113944533026    8.62692504873840
H        -1.60346070195643    4.11072153386911    6.28878042149412
H        -0.63774090545874    5.56428179747236    6.45051975989719
H        -2.37521186688906    5.63924658808774    6.66463173746884
H        -4.89434556529302   15.43910578646425   13.45179078306488
H        -4.92328230267430   14.10189096570433   12.31892492318453
H        -3.53189526513393   15.16418374700255   12.38333616347949
H        -5.47699304400428   13.32911058118270   15.81391490588470
H        -4.38326375677579   11.97995734459763   16.05147000661163
H        -5.44265975978453   12.01136804462436   14.65633769844468
H        -2.88657201100487   15.35295828853235   15.93280238155068
H        -1.52555920549835   14.99627165181295   14.88441326901039
H        -1.90796739978367   13.92658697746637   16.21676809868359
H         1.48379200551867   11.38389948964935   15.13015608166973
H        -0.06533822774429   12.18691323656425   14.93801321492638
H         1.40298176245550   13.13299832172827   15.09900845792118
H         0.70361641862464   14.00254839484887   11.02069731250024
H         0.90601322624408   14.71963558846763   12.60547918084666
H        -0.59244539935981   13.90422919301104   12.19675387811819
H         3.36519686006241   11.78668324336228   11.50079946279406
H         3.64255968669037   11.81099355222180   13.23657604923472
H         3.42823261733842   13.30747240113137   12.36593627254695
H         3.65926703711797   10.41817779738173    9.48145832054272
H         2.86873094606712    8.09876180518089    8.40417592297574
H         0.24899494560411    8.24071226728982    7.94717260574433
H        -0.60522234342096   10.65587330345983    8.73879492643219
H         1.50749376383313   12.01460572618723    9.65502662035715
H         3.67966994465830    9.49803459740109   12.66744808424267
H         3.93657821393742    7.65108230272306   10.76296197844236
H         1.73481019362530    6.11955443058554   10.78059192201929
H         0.17584069585418    6.95762636918172   12.78324708518863
H         1.35519016600615    9.06664427647726   13.93269762793330

