40
CSD_code = ZOCCEZ | q = 0 | S = 0 | Stoichiometry = C18H16Br2MoN2O | MND = 9
Mo       10.68671240429144    1.02708998619169    6.78861194209742
Br       12.33789471615065    1.02884356337258    4.58923735445172
Br        8.16931518835684    0.22401173584929    7.53248073529056
O        12.01192769737436   -1.49461077082968    7.96837082390772
N         9.61400174888863    2.51868661619411    5.66962979153876
N         9.76041715667004   -0.04173377246198    5.17795968520336
C        11.51238049683891   -0.56134462628191    7.52044586792375
C         9.55827484745301    3.82136627471644    5.93828995384367
C         8.86983213637987    4.74543023385560    5.17794625777972
C         8.18395886990162    4.31029758322567    4.05364874500235
C         8.22390666607997    2.96308786565813    3.75899112313200
C         8.94001341745814    2.09012768487910    4.57948017193078
C         9.01103668931040    0.65703300076508    4.31030866976059
C         8.36370922244302    0.02705370497464    3.24641459072727
C         8.49953769757772   -1.33652393566300    3.07647270059435
C         9.28349883288688   -2.04322604534619    3.97758177566119
C         9.88981746336180   -1.35360877676230    5.00892923371016
C        10.87062026941108    1.06431059904066    9.07275376698689
C        10.32118150672361    2.28425533151435    8.60913460880126
C        12.72058035089969    1.41757876840258    7.76697625758873
C        12.15600616781372    2.63548473470058    7.31335623485261
C        12.36189759352688    1.31445535831555    9.24207285569309
C        11.49572115467146    3.24967249295920    8.53940776130500
C        12.39673284199996    2.77808929132092    9.68721453049820
H        10.09154960029969    4.15592044811422    6.81035646311402
H         8.87572263097390    5.78445878346611    5.46468703658404
H         7.63673984456452    4.99804056648420    3.42856521606646
H         7.70359472294121    2.58912107369110    2.89368356789004
H         7.75906954949785    0.59487361984865    2.55994396807994
H         8.00538282052339   -1.83807817751216    2.25935323577604
H         9.42317119009547   -3.10764142183365    3.88755451547236
H        10.50441511937836   -1.87571707817762    5.72994459254401
H        10.32703134832676    0.36954108131861    9.70423056921204
H         9.32557447107346    2.61247736346084    8.89093831268429
H        13.64165616987725    1.00575439405040    7.36799423720145
H        12.63817733962529    3.24702816083300    6.55705209101319
H        12.91772419178816    0.58889209815792    9.83335407731593
H        11.27736595647498    4.31709520145882    8.51898747904410
H        11.95408824421134    2.93757276844908   10.67112660160238
H        13.39626166387812    3.21303421959980    9.65211259811710

