37
CSD_code = ZOCCAV | q = 0 | S = 0 | Stoichiometry = C18H12CrO6 | MND = 6
Cr        1.14077051169556    1.17608108884191    2.89240714336195
C         0.05723079770070    1.29548979342155    1.38567078260594
O        -0.62134560235959    1.35027957888850    0.45913802944877
C         1.35305457438018    3.03251098651721    2.79157817854019
O         1.41499336752707    4.16123204288720    2.59441461273831
C         0.80273055887220   -0.65864540647316    2.74633481459828
O         0.50005044818770   -1.73347986835919    2.46680001455443
C         2.60087069103556    0.97417589370558    1.73984664659544
O         3.41568524320234    0.86991113119470    0.93952095306445
C        -0.45259818570722    1.41175717369213    3.84762513103083
O        -1.51930888385968    1.58238456829328    4.24357558580467
C         3.69784131216814    1.73405321336052    4.48355313610335
C         4.95748490515661    0.88787021876047    4.78032135025244
C         4.51532357642639    1.93960168718610    5.73984722513553
C         2.40153712046044    1.05004473224494    4.48781119016930
C         6.09534926921637    1.09234211621808    3.95526645472187
C         7.04707817282544    1.29371074982713    3.24278371918460
C         8.17625461968253    1.51342963334342    2.42289998150531
C         8.84042859823960    0.43540466922379    1.83594841285266
C         9.94565582564396    0.65806214505857    1.03798305459276
C        10.39870758412082    1.94905667196695    0.81606489022271
C         9.74094434184429    3.02272105034159    1.39533861641398
C         8.63515224910372    2.81183384371739    2.19570413462767
O         2.30699813130868    0.33238835793878    5.59975442704195
C         1.16399206603782   -0.44883459160267    5.86192822699641
H         3.83128281206380    2.47230723380115    3.70235260415504
H         4.76931451693495   -0.14535794860162    5.04991552061922
H         5.09485451793854    2.84835291434823    5.80169999834834
H         4.07957710019112    1.61748860055326    6.67297493014034
H         8.48124853051298   -0.56794008159296    2.01239866898552
H        10.45747873345479   -0.17861525586171    0.58515650800937
H        11.26332016495904    2.11838044192830    0.19155862418599
H        10.09335527553480    4.02907038531459    1.22173747701388
H         8.11813602182054    3.64466029954560    2.64993064893650
H         1.30463009166977   -0.87291124465868    6.85602090423207
H         1.06465764300608   -1.25359120263850    5.12824656168349
H         0.25866329895788    0.16437437769206    5.84389084152960

