58
CSD_code = ZOCDEA | q = 0 | S = 0 | Stoichiometry = C21H31Cl2NO2Ru | MND = 9
Ru        3.25186971317653   14.01820055958379    7.24943370116292
Cl        1.68558812078293   12.67676714487693    5.99114731000596
Cl        5.05718240066114   14.54542327949597    8.79709633862329
O         1.91543583499457    9.51779067504046    6.41613096356856
C         4.76919942802827   13.65246848704059    5.73495202044151
C         4.45971640653334   15.03000642750046    5.74009721867011
C         3.73706668795916   10.80230293501301    7.19383600753663
C         1.86132175834364   13.91406561151678    8.92446207378844
N         3.88824816717593   12.01846812623932    7.98366803313887
C         6.13488921292232   10.24999836786479    7.42688959643349
C         6.69481076160744   10.22859017509831    6.15490621705040
O         1.69052129095944   10.53384081773893    8.41438627993319
C         3.09880798669988   15.30938573602009    5.46175318391233
C         4.74528500805908    9.72209283875544    7.64685821930047
C         8.62195295981410   11.41029811868338    6.95774199106532
C         2.31038752861934   10.29786783022544    7.40661998427176
C         2.50849137688538   15.97281541016410    7.95128929931734
C         6.83808522401326   10.85644400833875    8.46145287108602
C         7.93177183967195   10.80106186652438    5.92225111645870
C         2.36906667356940   17.15316787526126    7.01120820149611
C         2.52386245029006   16.70891131134920    5.54370222779648
C         0.57855925030094    9.01332483307138    6.48227856155559
C         8.07551215195051   11.43271562353349    8.22855402913711
C         0.49002786204868    7.77451702726181    7.36118271176092
C         0.17015982051116   15.05839194662251    7.39577797610397
C         1.49144681605247   14.99747734407433    8.10287445427999
C         5.47263077021675   16.08303723724142    6.07717976975147
H         5.78381425811043   13.36140200388086    6.00248057305194
H         4.31269176143540   13.02362545606933    4.96885886920500
H         3.88730967217787   11.00154880940843    6.12974840626057
H         1.16154873440135   13.08619167909917    9.01800859484788
H         2.45217277742803   14.11056283446425    9.82139101007822
H         4.87464807746543   12.16716543267814    8.22808548944485
H         3.37664494030682   11.85830831432703    8.85986664080595
H         6.15432347926417    9.76126220684005    5.34415526190532
H         2.61850361682142   14.68243748727391    4.70810165712128
H         4.57932597021487    9.49100191632694    8.70149030998462
H         4.57496578236678    8.81998279207055    7.05796417486175
H         9.58369086514657   11.86517921887265    6.77338781885252
H         3.10462094794247   16.19111095716217    8.83856936899521
H         6.42504192948296   10.87023298679770    9.46081185435765
H         8.35632492212499   10.77794035524134    4.92930393173100
H         1.39324216614537   17.62405409373413    7.16421011177509
H         3.12784911994508   17.89561086528870    7.26245131192419
H         3.17768104947327   17.40101378346005    5.00423884938538
H         1.55556694269269   16.72195599116209    5.04156167815255
H        -0.07153584834047    9.80501291186921    6.86630882165108
H         0.31381628984369    8.78722652560952    5.44800947939079
H         8.60601856190702   11.90700878526096    9.04012602691266
H        -0.52328380859686    7.38442337664263    7.33727849985385
H         0.74547255058453    8.02665927592498    8.38740920520051
H         1.17374247283646    7.00816621045652    7.00332823014775
H        -0.43869835425591   15.82566522849985    7.87805512872083
H        -0.34567025954639   14.10452115162070    7.46748051900002
H         0.27523237533164   15.31025123505799    6.34399921514193
H         5.72698326617315   16.61600637154546    5.15887763897667
H         6.37448644657730   15.63192844983202    6.48289957001361
H         5.09667179268543   16.80221167939800    6.79951139459022

