59
CSD_code = ZOCDOK | q = 0 | S = 0 | Stoichiometry = C28H25NO3PRh | MND = 4
Rh        3.94057425169353    4.12814711632326   11.97437295479297
P         4.76537164126951    3.26648161237568   10.05682291136197
O         5.07049272605313    2.83772367851616   13.01905406390486
N         3.42275213134243    4.66929126904853   14.01656636020135
C         4.85069859763439    0.61148953473869   10.77183507458405
C         3.43137823006228    3.34594300066455   14.66882845057280
C         5.13532481439711    4.65262238176218    7.60900476492843
C         4.56804649236896    1.48337037751209    9.72248825455432
C         4.08465286155694   -0.39707472491694    8.30888657545298
C         2.89285108369172    4.01570057533682    8.19362949349396
C         2.96663717086315    5.39638810362804   11.10660868218225
C         4.25573658636252    4.02903869060215    8.48324290337240
C        -0.88520927389888    3.81872193378517   15.79828906269482
C         2.41826504158002    4.60345316733076    7.03792211749676
C         4.18459630644158    0.97203023343702    8.48726926436955
C         0.39576627584912    3.98239384186011   13.35408628195108
C         4.65556218033966    5.24584797070808    6.45304626119131
O         2.37668711000410    6.22377380534235   10.56230834856313
C         2.25661834130472    2.50427162975958   14.14384732887358
C         0.94590198215722    3.19992551961613   14.36350789364187
C        -0.78188428133470    4.67798629813015   13.56373341799833
C        -1.42444889811546    4.59760564161300   14.78761339089743
C         6.57462956764613    3.45231738032930   10.06220569197803
C         0.29393420150550    3.12615252366773   15.58869922604091
C         3.30188540216125    5.22104512750963    6.16535699470454
C         4.75017713099069   -0.75427297547347   10.58582262014698
C         4.36521748563646   -1.26081891381444    9.35432965210066
O         5.35404647590414    1.93065303750592   15.02630862328218
C         8.46944094335633    4.66021877895246   10.91670370815772
C         7.10317776836968    4.45719477181130   10.86569480327613
C         4.75468458291112    2.62737158400149   14.23331648400928
C         9.31317960770664    3.85703459057748   10.16570211248021
C         7.42342061089231    2.64703191390088    9.31114099811728
C         8.79041822440435    2.85318017076572    9.36599858232125
H         4.16601597873122    5.24589512696159   14.41571509591003
H         2.53299081118431    5.13755447224296   14.19516630314048
H         5.15358404048055    1.01624107078104   11.72716622629305
H         3.38244304150469    3.42809853256747   15.76321281171327
H         6.19219429734989    4.67669744409566    7.83298008907366
H         3.78791484785543   -0.79023515337434    7.34729077194789
H         2.21530761863469    3.53683418847923    8.89065650399160
H        -1.38564434297671    3.75101120090760   16.75304447636096
H         1.36126922388033    4.58812765592134    6.81690378388645
H         3.96664004524712    1.63956481431333    7.66575587547287
H         0.89922215553784    4.03709701591958   12.39368764154620
H         5.34267809945576    5.73180442936354    5.77588908433549
H         2.41343096309499    2.34345157043314   13.06173933891170
H         2.27714507818885    1.53792830399238   14.65085269862004
H        -1.19808341166035    5.28159620856805   12.77076516748130
H        -2.34479654009980    5.13753460728894   14.95305743905799
H         0.71321200012012    2.52000484481990   16.37909527139242
H         2.93250997271321    5.68709252031311    5.26400046798342
H         4.97147461406472   -1.42521386606306   11.40245096400317
H         4.28463741039594   -2.32796721742601    9.20861445295926
H         8.88068929570697    5.43735127083831   11.54418251084415
H         6.41943481296729    5.06669695144867   11.45704409846088
H        10.38165572827690    4.00910224710227   10.20849916563651
H         7.01348594730235    1.86057353016991    8.69229773990257
H         9.45190493891769    2.22571858342405    8.78648866739294

