49
CSD_code = ZOCDIE | q = 0 | S = 0 | Stoichiometry = C22H21NO3PRh | MND = 4
Rh       -0.40212285867602    0.22682148458312   17.48154544116727
N         0.66037020096529    0.27488428175511   15.60454373413515
P        -1.80266822310005   -0.18293224127245   19.19490677948726
C         0.35177996170393   -1.00537205697650   14.93051316698867
O        -1.57702849061787   -0.91947361332931   16.35708017997221
O        -1.75813032365625   -2.09113664609063   14.48489775134619
O         1.38066486813019    1.96486696697818   19.10616192032537
C        -1.14106722471663   -1.38788566423007   15.25716315634310
C        -3.46178453020573    0.54804824416246   19.06537662167927
C        -1.35051711511781    0.24070800888613   20.90803084230472
C        -0.98322834493852   -2.76704560262947   18.92353680668947
C        -0.60305993663669    1.04869472474933   23.45475116930896
C        -2.07986561547729   -1.97965751477951   19.26615253819142
C         0.69460854497296    1.29378674216419   18.46706296085988
C        -0.67089953027820   -0.29905321830764   23.14625684467837
C        -1.04164209226572   -0.70630398540016   21.87557007845465
C         0.59617300172439   -0.94294535777810   13.42983081351091
C        -2.28723493954256   -4.74271296790549   19.27640354270869
C        -1.08482162786500   -4.14436916163081   18.93128268760829
C        -5.11260225531931    1.58966389140564   17.66335834731385
C        -5.98051322469162    1.65740553463366   18.74133148808137
C        -3.85426943090489    1.03913221393341   17.82526993018653
C        -3.28340095808771   -2.58143160788079   19.60598258961206
C        -3.38154157267367   -3.96270718165974   19.61018537750091
C        -1.27210157980021    1.59552512044794   21.22077679932411
C        -0.90426482679860    1.99784781268700   22.48938409266294
C        -4.33173754396686    0.62634975952484   20.14914261475596
C        -5.58860946702235    1.17917489473678   19.98193817699332
H         0.21343344125006    1.02847434143069   15.07231731679325
H         1.66453623073218    0.45106139489099   15.58209161001727
H         0.97826607757015   -1.78666843071818   15.38121228017935
H        -0.05403598382378   -2.27142104370769   18.63890115430539
H        -0.31199536535675    1.36160361192294   24.44652386157034
H        -0.43288276977789   -1.03786755054254   23.89761327899298
H        -1.09331463253511   -1.75894805047762   21.63506676288749
H         0.23138189563702   -1.86103791845660   12.97731234258857
H         1.65510866589351   -0.82657291646938   13.20039426670466
H         0.04333119598280   -0.11357981895406   12.98949761451376
H        -2.37330093188202   -5.81928419708995   19.27401300320940
H        -0.23583615938765   -4.75474201629865   18.66001480002470
H        -5.41887171259056    1.96723084425967   16.69896240721978
H        -6.96351207443689    2.08746298550493   18.61724497176505
H        -3.15994926360054    0.97322631278599   16.99484447425992
H        -4.14328567426997   -1.97512754437501   19.85221661829376
H        -4.31975808794932   -4.43228891385753   19.86765843549102
H        -1.50420251865020    2.32404949001839   20.45414287690065
H        -0.84675019840051    3.04948101051994   22.72831460788941
H        -4.01911662047912    0.26457894997806   21.11958293636735
H        -6.26553037906173    1.23878659888003   20.82193792783556

