100
CSD_code = ZOCFEF | q = 0 | S = 0 | Stoichiometry = C50H42CuIN2OP2S | MND = 4
Cu        5.98723791530084    6.63959630420073   13.66779763906092
I         4.02343873351034    5.46073473763533   14.66053292201125
C         1.76057403558919    8.07344428545037   16.62362617113862
H         2.40274624241939    7.46333377958846   16.00981920649225
C         0.53254831287870    7.55839988945958   16.99671997383957
H         0.26815585726291    6.55978273335383   16.68556364618887
C        -0.34373681452762    8.31405544466988   17.75825403240465
H        -1.29898858601000    7.90370827905668   18.05019475430914
C         0.00371951699956    9.60109680861427   18.13978134724249
H        -0.67872706330504   10.19593762303005   18.72846428652253
C         1.22465481746096   10.12403973238280   17.76458604280330
H         1.51184571614164   11.12515500885963   18.04950958172795
C         2.12125241113792    9.36165151862193   17.01268000956444
C         3.40004216702180   10.00623568993952   16.65036937723751
O         3.53157063741338   11.22440057211494   16.66900336257766
N         4.43371208728455    9.16380929954300   16.32339140175773
H         4.26338194400873    8.16278979508912   16.34182442477903
C         5.73014654764060    9.51023165590308   15.98103809564027
S         6.79622881895853    8.27014854281970   15.71265908088646
N         5.98961139101998   10.82075851547948   15.90144581891966
H         5.16028200580848   11.40288927542473   16.08868063021266
C         7.14666906007049   11.52176754716609   15.57426115133226
C         8.42970334981066   10.98092046560279   15.58014698963151
H         8.58752994429629    9.95396141721882   15.86221772479365
C         9.51082369576672   11.77268169953171   15.23581346163474
H        10.50184555691505   11.34360458829988   15.24851033063548
C         9.33685080335621   13.10022160309579   14.88727224220914
H        10.18653600519282   13.70875983045270   14.61654344284228
C         8.06328633886350   13.64733561846071   14.90146895336245
H         7.91709247581884   14.68628254587457   14.64576647344409
C         6.97808692678588   12.86902196988674   15.24684766204066
H         5.98493203255975   13.29370450972074   15.26994716074576
P         8.06068393881652    5.82849953830755   13.39026506433047
C         9.52365197604088    6.85634063586103   13.03517413133454
C        10.00532180423650    7.60289407393257   14.10938421765727
H         9.51677127780252    7.51571645308505   15.07142805036332
C        11.09663608727753    8.43131426760506   13.94659922444603
H        11.47559503716440    8.99391079517769   14.78745389110745
C        11.70791867979796    8.53491271710369   12.70681613488157
H        12.56221196947659    9.18311482651305   12.57652878200856
C        11.22373103875954    7.80523697642267   11.63497493526970
H        11.69975190713919    7.88290541353409   10.66802704996878
C        10.13419843563469    6.96691691684864   11.79263036479565
H         9.77310073270084    6.39252199335395   10.95108580829365
C         7.93083754862935    4.73861249387748   11.94255048255231
C         7.49867146443298    5.33119358411730   10.75625414118753
H         7.33349704519630    6.40349765889205   10.72955345639323
C         7.27425159626339    4.56364136699912    9.63072711817894
H         6.93902125137697    5.03227449118974    8.71639734142865
C         7.46338192934340    3.19147728172549    9.68519562458167
H         7.28197363696034    2.58710916811799    8.80889907693212
C         7.87079544886696    2.59450014153815   10.86673884493659
H         8.00435957043567    1.52363629294947   10.91191656611142
C         8.10000538734725    3.36009196974234   11.99662620114739
H         8.40348888411296    2.88808721685298   12.92042097805429
C         8.73556991788575    4.74134613753106   14.68362263469907
C        10.04602735119212    4.27057307051346   14.63893912924975
H        10.69240213903193    4.55390041654736   13.81882686772066
C        10.51032264513849    3.44303618110085   15.64282223440567
H        11.52599316916068    3.07567047833055   15.60834036342436
C         9.67757364466880    3.08326310135690   16.69238585846158
H        10.04835848533424    2.43678910966400   17.47437108783027
C         8.37610674760833    3.55244874452666   16.74059634587461
H         7.72703808555468    3.27508097945164   17.55781171596312
C         7.90480512689950    4.38245625791921   15.73879236840272
H         6.89223924448120    4.75884713112871   15.77388816791465
P         5.64877451802235    8.30909807587423   12.19891432909321
C         4.66401686962791    7.76675549196463   10.76482699652437
C         4.15640319505998    8.68075437820241    9.84471699010016
H         4.35366490121868    9.73696491736788    9.97358003619096
C         3.40456854730484    8.23288166379446    8.77606053007623
H         3.01379781856547    8.94143337501043    8.06007531459134
C         3.14732492310785    6.87829440974668    8.62299947903904
H         2.55718626025846    6.53486525273968    7.78615981154838
C         3.63720028414250    5.96874018885688    9.54420407158679
H         3.42884493689526    4.91497812226895    9.43464173721465
C         4.39265039354817    6.41213531232617   10.61515985021397
H         4.77157900562209    5.70500938885429   11.34162677289552
C         7.07590456394560    9.15570498561571   11.45573862868960
C         7.40436106100587    9.09334429960482   10.10590006477960
H         6.75850594703071    8.57331052166851    9.41081375239611
C         8.55880724693008    9.70546647683760    9.65134319169966
H         8.80968212359658    9.65707941012070    8.60133214771577
C         9.38782119319096   10.38064199759399   10.53161528125192
H        10.28184116162435   10.86463740400098   10.16719540584540
C         9.07668286476729   10.42531230965399   11.88112588611229
H         9.72221084167312   10.94088637331145   12.57643841410555
C         7.93745093333043    9.79851637643075   12.34347424439124
H         7.70800645314127    9.80102491753478   13.40091636105848
C         4.58399649024477    9.67556080049371   12.76626565756597
C         4.93751406414239   11.01852393329393   12.78685862613448
H         5.91181173893098   11.33487639918946   12.43975262665768
C         4.02951425477652   11.95707623798087   13.24734181051033
H         4.30227317203451   13.00261866685133   13.24862374757214
C         2.77864133917515   11.56724347164761   13.69466952138625
H         2.07918473174828   12.30546124387164   14.05586791469039
C         2.42877428543834   10.22569657046382   13.68916535334262
H         1.45703337105058    9.91529070865724   14.04432786923745
C         3.32831093448385    9.28378573907629   13.23125016398050
H         3.06271348598852    8.23405141108734   13.22263575389544

