103
CSD_code = ZOCFIJ | q = 0 | S = 0 | Stoichiometry = C51H44CuIN2OP2S | MND = 4
Cu        6.05112313394069    6.78563359272112   13.57268444356331
I         4.18304167495971    5.44604380901068   14.55340733129107
C         1.73554842944615    7.94296910521647   16.42540322393931
H         2.43678877003369    7.33741725861436   15.87503892060944
C         0.52793124438325    7.37394564213668   16.78680090776614
H         0.33823912364765    6.34343762534854   16.52990893631063
C        -0.42285546029867    8.11633543015654   17.46759315800448
H        -1.36134266845335    7.66375456377914   17.75133905318312
C        -0.17108732390407    9.44394375099695   17.77875653334877
H        -0.91148827669465   10.02868775929536   18.30410564920478
C         1.02901779723725   10.02000464127224   17.41485807684754
H         1.24253099102328   11.05290301412672   17.64593904063937
C         2.00048222799635    9.27289735964123   16.74457621538009
C         3.25107080438263    9.97785986177684   16.39557888948572
O         3.30952775202414   11.20153445444573   16.37197834282061
N         4.34413629929915    9.18904800868192   16.13308315093024
H         4.23161318399513    8.18033431582212   16.16623222613530
C         5.62998658227908    9.60689201128084   15.83554848444553
S         6.78164998548053    8.43366668910053   15.61729773412239
N         5.81873988649221   10.92739709048460   15.74180594560410
H         4.94979113398399   11.46874380132319   15.85067624399606
C         6.97149137087048   11.67228051930443   15.49299231161438
C         8.25782883208552   11.22905249295632   15.78387788207581
H         8.40436963397135   10.25633016016042   16.22397612303159
C         9.35584249242452   12.03833483899197   15.53290389812000
C        10.73625101965158   11.57813069850903   15.89070035793067
H        10.73620312328864   10.52593015796935   16.16340947312186
H        11.11012428512130   12.15123194105723   16.73935458771173
H        11.42332152329079   11.73410012009240   15.05999683611863
C         9.16088060730278   13.29600929757474   14.97410105525763
H        10.01327493926550   13.92714032811124   14.76863581321669
C         7.88231530272132   13.74830885265202   14.69860970455299
H         7.73719009766811   14.73298600301143   14.27955278165449
C         6.78846710314907   12.94984379727557   14.96506849167941
H         5.78676638143928   13.30192324217169   14.76971952561031
P         8.10870278183763    5.96930408690140   13.21377687849438
C         9.60369552577846    6.90315672319812   12.74388304933656
C        10.05579532638903    7.80989260438626   13.70027693791605
H         9.50642503324144    7.91229062917274   14.62779215201737
C        11.19022779725813    8.55984329807025   13.46487163907547
H        11.54784653347298    9.24957587696749   14.21414925387663
C        11.87018545902004    8.42752766517146   12.26474597217810
H        12.75588701290634    9.01678893150095   12.07695238980854
C        11.41534816089778    7.53840905735122   11.30670483434185
H        11.94573383178115    7.43253163025107   10.37108910940533
C        10.28774834145722    6.77191494571557   11.54232297641021
H         9.95182017002382    6.06736089876724   10.79431091468114
C         7.82145035825424    4.85402334067206   11.81168887460186
C         7.51737600200838    5.44275000290115   10.58429846085694
H         7.55507162475417    6.52261637644866   10.49256892058877
C         7.16594662045079    4.66061598693246    9.50203605699621
H         6.93613722943622    5.12470185910316    8.55338943897314
C         7.09118212168976    3.28348915713982    9.64238567332938
H         6.80992808118777    2.67033674397619    8.79903933743011
C         7.36185686717517    2.69572218867427   10.86704602949866
H         7.28551919277061    1.62433651656483   10.98046310021108
C         7.72119988607094    3.47427086396032   11.95306054817177
H         7.91663162187257    3.01404625932020   12.91154545495491
C         8.81515084249866    4.87265656009533   14.48297045496574
C        10.03975662960821    4.23601600035443   14.29578437485875
H        10.59457848906616    4.39584962876887   13.38055359150522
C        10.53408452339018    3.40226279074754   15.27968931336215
H        11.48251761525743    2.90479832927232   15.13548291744866
C         9.81614685336447    3.20166088399718   16.44982815667662
H        10.20835137862067    2.54674950621293   17.21414334266446
C         8.60224499803598    3.83893684794632   16.64046079974725
H         8.04344038076633    3.68433591926560   17.55132639427898
C         8.10175536179802    4.67685254830380   15.65940097968239
H         7.15801844701826    5.18411613039130   15.80268539052544
P         5.68573828833369    8.44654907372849   12.10825059795163
C         4.80252711072609    7.88368885782212   10.61690960618082
C         4.39526884638735    8.78016832222705    9.63210505590870
H         4.61499716525957    9.83406340840935    9.74235381823246
C         3.71331066095687    8.31795670566236    8.52351333294771
H         3.40121434159704    9.01242018957890    7.75678616364799
C         3.42467086542213    6.96701684916159    8.39530910684619
H         2.88982465971726    6.61241545518238    7.52649196963324
C         3.81189187212196    6.07616103587789    9.38126268808647
H         3.57885665307522    5.02577017774489    9.29061450993370
C         4.49817917793470    6.53389651408413   10.49208268027436
H         4.79795408404180    5.84163900614704   11.26772609428212
C         7.13866693150762    9.32538554556267   11.46081066185958
C         7.59232595577491    9.21440823669467   10.15043636150132
H         7.01674266221258    8.66231913751817    9.41904227438033
C         8.78003072681796    9.81929206576367    9.78028016004543
H         9.12892309450934    9.73012340658638    8.76142197797250
C         9.52014410322755   10.53600006203867   10.70577630834504
H        10.44413201637602   11.00861858776947   10.40730491888359
C         9.08060843914242   10.63673220213501   12.01575493659417
H         9.65386457617458   11.18767974860877   12.74618011253111
C         7.90612027087839   10.01923639760193   12.39524551848295
H         7.57909069463410   10.06509886833530   13.42518977706845
C         4.54039067791562    9.77433557711087   12.60517052179745
C         4.80993842783543   11.13551260512955   12.55464546805392
H         5.77211413715854   11.49077994059873   12.21112156244643
C         3.83395357483540   12.03821970595194   12.94227408960523
H         4.03833221118250   13.09813422538524   12.88860936255085
C         2.59913563078245   11.59493683667269   13.38451211827272
H         1.84640384134585   12.30635585242629   13.68763378120306
C         2.33292493441679   10.23591802817650   13.44859864131830
H         1.37381351699998    9.88510486366432   13.80047764011883
C         3.30097160838598    9.32941024549295   13.06517548808421
H         3.10340514010865    8.26535924249492   13.11119762584920

