100
CSD_code = ZOCGAC | q = 0 | S = 0 | Stoichiometry = C50H41ClCuIN2OP2S | MND = 4
Cu       11.80064244906381    4.34952892175159    4.23755401729028
I        14.03644168394428    5.11338249375894    5.08950899536607
C        16.02603251593755    3.06758177708449    7.43434641976321
H        15.12589010127373    3.51940109009375    7.81949794573488
C        17.22736610601584    3.73745111663474    7.57059560239531
H        17.24012278785493    4.71532528775333    8.02499555247864
C        18.40356930457603    3.16402785044460    7.11712953397781
H        19.33682042364966    3.69775188214217    7.21596140693356
C        18.38577615690260    1.90133531251743    6.54552830358100
H        19.30384821083494    1.44711913331968    6.20352151045697
C        17.19078365334894    1.22329927393771    6.41319001685647
H        17.15625368407744    0.23576483708599    5.97751662593968
C        15.99814233686394    1.81011765172186    6.83556554525719
C        14.75548811326266    1.03513080258743    6.65464251698256
O        14.74475903383679   -0.19011940124675    6.65017045992394
N        13.62007939262531    1.78736753235683    6.48348077434571
H        13.73607232389132    2.79898415981228    6.38423485852480
C        12.32860840930712    1.33490380452132    6.30839702931499
S        11.13562121875828    2.47404019058167    6.15532369252408
N        12.16928169067279    0.00254588447214    6.29519966733439
H        13.06666538548228   -0.49979778111619    6.38820293710232
C        11.05774761807039   -0.80220812663758    6.10276479095507
C         9.74203872490525   -0.34556939884493    6.09398856788374
H         9.51343643700652    0.69139723061904    6.27133658176965
C         8.71633681675832   -1.24759748914480    5.87160657350988
Cl        7.08867169581992   -0.66654347721895    5.86149086954847
C         8.95596932823357   -2.59498616242207    5.66779570583773
H         8.13840802035713   -3.27586503257112    5.49436233010402
C        10.26630349340346   -3.04570741961317    5.70614305650825
H        10.47182934365237   -4.09582721089527    5.56514190364371
C        11.30624644486792   -2.16671586256830    5.92292072234438
H        12.32498306621945   -2.52329474256610    5.95694712286152
P         9.83312261752631    5.43479961010881    4.27598918297312
C         8.26076736220574    4.52138023968987    4.15670075977857
C         7.95442692765036    3.71808487027204    5.25421191905391
H         8.63290241456738    3.69702114689499    6.09771940025210
C         6.79871281861968    2.96391018458174    5.26383689889674
H         6.56370375166740    2.34643603156328    6.11802224022202
C         5.94422690229727    2.99663905792467    4.17279369417795
H         5.04090205403403    2.40449246995328    4.17685024338668
C         6.24946688442397    3.78686284890361    3.07807719068305
H         5.58325593795277    3.81468597449929    2.22770864603471
C         7.40445536482188    4.54910944601372    3.06364332650178
H         7.62829475876680    5.16912745946946    2.20677955513057
C         9.80932875281139    6.54423975576691    2.83741202298835
C         9.95146447444420    5.94691024906504    1.58525605014716
H         9.99409494481069    4.86524627670031    1.51670866108812
C        10.04105962434735    6.72157756711084    0.44598095221804
H        10.14981528413686    6.24944548359475   -0.51999220926033
C        10.00606249544119    8.10354311157834    0.54895602967690
H        10.08176218328553    8.71259907153582   -0.33959403831579
C         9.88564380324186    8.70285073204204    1.79185919388107
H         9.87002387271333    9.77992610465646    1.87212454968497
C         9.79249203602200    7.93065179697636    2.93649902952900
H         9.71076979368151    8.40258537871699    3.90548241697528
C         9.47092818418673    6.55152261688365    5.66712930432260
C         8.19571669784788    7.06544633429651    5.88880139371788
H         7.38342467112866    6.79563244428737    5.22725758930190
C         7.97734806169381    7.91889008780506    6.95318124964113
H         6.98855227640677    8.31935835551691    7.12507055374952
C         9.02156634315712    8.26218987378004    7.79913421320068
H         8.84267355286175    8.92922455234451    8.62969101409525
C        10.28965765955239    7.75038198561426    7.58238273931821
H        11.10345174546815    8.01506966048652    8.24089023982476
C        10.51499882533341    6.89401320202814    6.51934098167017
H        11.50136232289959    6.48694202193407    6.34626001611221
P        11.73149746447529    2.76421161244246    2.63615882645146
C        12.58510807160436    3.35090938433266    1.13767557526749
C        12.92440386197167    4.69585415080393    1.05148105247147
H        12.67530050085299    5.36512667753378    1.86553200525408
C        13.58178633370917    5.17726462160990   -0.06648272755693
H        13.84305250932865    6.22323466743949   -0.12648828417032
C        13.90710449382759    4.31435841616104   -1.09881997841892
H        14.42153441813748    4.68711905774283   -1.97225919063550
C        13.58201648258926    2.96862472280114   -1.01140544463859
H        13.84419662215147    2.29600569760119   -1.81530767095384
C        12.92600300846941    2.48324017566651    0.10314058190610
H        12.67547082581715    1.43324958469788    0.17972341279297
C        10.14745822359291    2.12244868688992    2.01407283078433
C         9.68699508025799    2.31827642974398    0.71660604211803
H        10.30844395531866    2.82084055821256   -0.01281956455736
C         8.43091335423236    1.86257236176307    0.35762523258308
H         8.07714275823572    2.01518485214899   -0.65204828589379
C         7.63127223101897    1.21167047540887    1.28194728643342
H         6.65527805364044    0.85140622812056    0.99226084939652
C         8.07804004476812    1.03140570730487    2.58126704530621
H         7.45331805022813    0.53489444352134    3.30764038396968
C         9.32238183332353    1.50127451130196    2.95065066326729
H         9.66602417422998    1.39413411035337    3.97067600645229
C        12.70547757395985    1.25654671489183    2.95169486498177
C        12.20007570301213   -0.03703579286253    2.96916921978142
H        11.15460661885899   -0.22083260805503    2.76378695865989
C        13.04520967238787   -1.09904256318864    3.24218718221962
H        12.64765415073578   -2.10373404840749    3.24396908222392
C        14.38708819343863   -0.88051130484027    3.50501995209961
H        15.03911951191137   -1.71379691231674    3.71898385193932
C        14.89224936015769    0.41047870533944    3.49785437368305
H        15.93725528024610    0.59005987559907    3.70184761091831
C        14.05507578999794    1.47470555144929    3.23004710500078
H        14.44397442156301    2.48523511795430    3.22698650330684

