63
CSD_code = ZOCLEL | q = 0 | S = 0 | Stoichiometry = C16H32Cl2O12Zn | MND = 6
Zn       10.19490050169359    2.23921016264661    3.40839255962021
Cl        7.93260030940508    2.20003511148086    5.53877197763382
O         9.34939214578267    2.19043294663908    5.16478443814170
O         7.21736964687162    1.35831340391447    4.65846076582771
O         7.86317481144596    1.72583110105971    6.85933730783614
O         7.45830293924377    3.52737047463367    5.43745159955727
O        10.19489553623094    0.12040717378209    3.40840070990540
O        10.19487782549840    4.31321779848916    3.40845764175172
O         8.44167911984883    2.31316919795879    2.33880733050593
C        10.93198360508982   -0.71470565531659    2.49906017935743
H        11.94718177899946   -0.32816129487183    2.41058230226074
H        10.44932808980380   -0.67057672181677    1.51582054285547
C        10.87735845142991   -2.12701810359703    3.06894555170098
H        10.97283094771253   -2.88197293615370    2.29265378787927
H        11.66716173260260   -2.27550728693919    3.80573502454978
C         9.93963007856394    5.14640531803797    4.55142413728503
H        10.49057068097714    4.74280114524601    5.40155283874205
H         8.87085201106492    5.10733249277725    4.78751660003695
C        10.36523942042317    6.55341952174108    4.15152156967709
H        11.43840136318941    6.68860661664875    4.29046444257436
H         9.83203356039609    7.31519717972567    4.71439499936745
C         7.43201209702740    3.32586424227086    2.28250971531176
H         7.72984608202955    4.09827125512826    1.55977144004282
H         7.32212364394744    3.76772433511932    3.27216781163253
C         6.18120205958806    2.60370958029475    1.80473422731852
H         5.43486169140299    3.28259131851706    1.39976149172721
H         5.75944381168248    2.03436405119875    2.63234856671444
C         6.77889668883170    1.66296856209845    0.76322416057722
H         6.14704390333868    0.80396431076929    0.55236538838104
H         6.96960835801123    2.19817838375074   -0.16771562433631
C         8.09012606497365    1.25529603735295    1.43322037375322
H         7.95118761051606    0.34700107155689    2.02540235721392
H         8.91457768504379    1.12395156687013    0.72863264416027
C         9.45780671598140   -0.71470559816091    4.31773950303093
H         8.44260846527925   -0.32816042662442    4.40621701643477
H         9.94046373776790   -0.67057776259110    5.30097855766665
C         9.51244475998889   -2.12701397171256    3.74784277378925
H         9.41697681229570   -2.88197024927343    4.52413232543308
H         8.72264049672697   -2.27550722329493    3.01105531360429
C        10.45015266827524    5.14650561221277    2.26553427233193
H         9.89920068432169    4.74298071412330    1.41538895300162
H        11.51891178079066    5.10741545390228    2.02936643936965
C        10.02458221473683    6.55359145476784    2.66514404400630
H         8.95140927143789    6.68872719511585    2.52623693777810
H        10.55779792949168    7.31535707660336    2.10221522970065
Cl       12.45722789797529    2.20000350471072    1.27803258465471
O        11.04043336026774    2.19043893412465    1.65200976986993
O        13.17242744571971    1.35824599561298    2.15833588519762
O        12.52664550905928    1.72581977784556   -0.04254069548868
O        12.93156984415339    3.52732176724040    1.37937647508318
O        11.94812605461310    2.31318520691464    4.47797802398458
C        12.95778191503801    3.32588653278318    4.53429273571748
H        12.65993409434846    4.09828086605009    5.25703919444775
H        13.06767253675440    3.76775627263465    3.54463889478528
C        14.20858630183887    2.60372417907656    5.01207316724611
H        14.95491946284869    3.28260477450859    5.41705787599474
H        14.63035447874027    2.03438890892585    4.18445678232120
C        13.61089825086043    1.66297268324216    6.05357801117267
H        14.24275086785508    0.80396652276863    6.26443257959398
H        13.42017732486713    2.19817382395829    6.98452050174380
C        12.29967336992982    1.25531136973347    5.38356810313934
H        12.43861255361125    0.34701584684431    4.79138638355584
H        11.47521894175931    1.12396839694319    6.08815350126989

