50
CSD_code = ZOCRUE | q = 0 | S = 0 | Stoichiometry = C24H21NOS2Ti | MND = 12
Ti        2.87823864807171    7.05008671228232    2.78388826158687
S         3.55882675811511    8.39579704685275    0.98258976964967
S         3.52582639867644    8.92882207907267    4.10263250080837
O         6.14993963883271    7.59460218925672   -0.56118704394042
N         6.58131978434742    9.69925732363104   -1.26832201993444
C         4.96805157500870    9.04759290794209    1.78129355045979
C         4.91553919960872    9.37967631167107    3.14699843941002
C         5.97591541730454   10.07149906153120    3.72666501764202
C         7.08689082399539   10.40858592795710    2.97798774442161
C         7.17291798303512   10.02454243393884    1.64781582443391
C         6.12345841419405    9.34041036956304    1.05038364280044
C         6.27047849191625    8.78309578013931   -0.32927514158608
C         6.88902217389315    9.34353968018635   -2.63699677796640
C         8.34660283070725    9.57141359751498   -2.94350674150285
C         9.31571635179347    8.96997001728371   -2.14846712538297
C        10.65851567193323    9.18212551396812   -2.39906428924247
C        11.04803612975455    9.99570208261114   -3.45068950315775
C        10.08908491270466   10.59531305651423   -4.24815921886252
C         8.74411817816089   10.38774628713818   -3.99242336140788
C         0.86030515134405    5.91230768185866    2.34765017594923
C         0.84632665667978    6.29790572579848    3.70444984578750
C         0.85066511370363    7.70566289991613    3.75775227801878
C         0.87888009402772    8.19122815219957    2.43330995820486
C         0.89579932982850    7.07915554471876    1.56073319642344
C         3.34527409217787    4.81312025002636    3.40702353300125
C         4.09404444234575    5.67915476273887    4.22495483603722
C         5.02829850389483    6.35161169127222    3.39816058206800
C         4.82026284326994    5.93452029952612    2.07006836002337
C         3.75597419960078    5.00545039955393    2.07063586790908
H         5.91142996918792   10.33078574664803    4.77269214869802
H         7.90009618831218   10.95008658213086    3.43693905915045
H         8.06679961769752   10.23450797388289    1.07766626345179
H         6.68958319579481   10.66368562274019   -0.99697886444254
H         6.25683896801414    9.92030748650825   -3.31926715909873
H         6.64173613714272    8.28120066283835   -2.73250492864374
H         9.00748772683921    8.32929136669769   -1.33460825215586
H        11.40362846471022    8.70981166822770   -1.77579196819864
H        12.09685882166611   10.16026726046982   -3.64842947945170
H        10.38801253615079   11.22925787584876   -5.06999280904315
H         7.99795557549772   10.85943590406912   -4.61629845645015
H         0.74839379889573    4.90396995216551    1.97128424844131
H         0.71759126103763    5.64136431214966    4.55548323523284
H         0.74939583255711    8.31019550458478    4.65095494129175
H         0.82381586556946    9.23170763886981    2.13746795962748
H         0.83898773814865    7.12459535228956    0.47934039187655
H         2.64279723640791    4.06687904909834    3.75319526326351
H         4.06681343329929    5.72206664254865    5.30849234360366
H         5.84114975063925    6.97547289489739    3.74963952382994
H         5.42291675760161    6.20145128466805    1.20910951816579
H         3.42728131554551    4.43296343216816    1.21130485953337

