132
CSD_code = ZOCYUO | q = 1 | S = 0 | Stoichiometry = C55H70N3O2PSc(1+) | MND = 5
Sc        2.09634481801724   11.95170983697693    6.68980595627662
P         1.11693805469783   12.15809276140548    4.18330974884530
N         3.89028892186283   12.61143399306718    7.83878570238153
N         2.55260688728598   14.14500971321748    5.87179678375625
N         0.76856302733546   14.45958712900116    9.62634640700267
O         1.97471169028569   10.15568269419753    6.71175821668571
O         1.02259397825771   12.90223118467455    7.92326639906451
C         2.67432238590276   14.65332122633212    8.21740969473349
H         2.75215258290675   15.53051441300189    8.85870646616900
C         3.78183828542476   13.69646312584337    8.51407606441749
C         2.53981863201843   15.04763167033968    6.78534429146576
C         4.67021530802086   14.10044381984629    9.64599531000725
H         5.52888413600941   13.43983503525141    9.73943707324227
H         4.08602121566665   14.06871492361159   10.56661555152315
H         5.01319455806767   15.12615529049459    9.52023696155008
C         2.35649490145484   16.50519847563818    6.51026949138475
H         3.19008516314734   16.87796322956089    5.91288150379627
H         2.29339286603657   17.08343621820501    7.42628398625040
H         1.44697368964362   16.67041160732855    5.93092141988323
C         5.00287529713599   11.74575882644688    8.08196510913427
C         4.99711279187737   10.84372286990425    9.15273939748556
C         6.12160522004663   10.04951924527271    9.34386823065966
H         6.14345097227044    9.35023142509744   10.16404382314716
C         7.21847714417694   10.15280184783400    8.51226506944626
H         8.08841822213610    9.53963468122180    8.68832001033801
C         7.20427786249766   11.04016092044587    7.45131910274517
H         8.06839309713909   11.10906946138804    6.81157079099920
C         6.09914272106172   11.84303355025096    7.21052758768267
C         3.81208512727235   10.70300175408873   10.08311640816983
H         3.02197101103605   11.40542130263613    9.77626205272574
C         3.23187813127500    9.28767116654969   10.00216013089294
H         2.87201873189267    9.07775578483111    8.99784362719812
H         2.39896007645411    9.19454440194996   10.69470753424480
H         3.98042256485748    8.54475291687567   10.26436551300590
C         4.20814816005840   11.01323383096956   11.53042218159878
H         3.32109227546455   11.03735431485887   12.15846864131137
H         4.71392691123811   11.97189701337282   11.61184632119061
H         4.87463972692593   10.24643542399686   11.91607489285065
C         6.07211386267490   12.82766952932812    6.05809170313376
H         5.02970175813275   12.89751032466831    5.70207927507891
C         6.50935367763718   14.22092574921248    6.52633348968322
H         7.47994175851779   14.16543355666642    7.01385859603976
H         5.79409277152818   14.64626117469941    7.22497287646735
H         6.59342995920753   14.89063982080881    5.67287132014269
C         6.95553812353276   12.39946010960104    4.88506183969222
H         6.71134345703049   12.98875284321296    4.00353855729412
H         6.81609983829346   11.34857433776624    4.64593168333346
H         8.00562207722720   12.56525143562310    5.11109569474650
C         2.41852710227790   14.57051156409605    4.48743865334412
H         3.26154617192339   15.22286781222265    4.22143094828279
H         1.49782939572324   15.15806245298272    4.36345674818625
C         2.36862844558273   13.37540801964750    3.53803660628462
H         3.34437762273445   12.88063972170109    3.49346969837855
H         2.09006266108047   13.71905938682392    2.53707253926703
C        -0.39546176043529   13.15897873297847    3.93657043246489
C        -0.89946234117548   13.86577474122038    5.02610998718069
H        -0.41204299584574   13.77569723730853    5.99250212882354
C        -2.01441604021249   14.67115290689712    4.87912995373456
H        -2.40244373705116   15.21601233894450    5.72686571690817
C        -2.63569606302548   14.76998960033658    3.64407542271499
H        -3.50898024091756   15.39315989317689    3.52919008752074
C        -2.14043741874753   14.06521412736475    2.55844105552840
H        -2.62741253222504   14.14036575496469    1.59820998068353
C        -1.02269450425736   13.26180298045369    2.69891484624335
H        -0.64165780472899   12.70795987094355    1.85275245057009
C         0.96891921353932   10.93132119788987    2.84530337862313
C         0.00253982723302    9.94550860485626    3.03409936033575
H        -0.60327500471557    9.96264032727380    3.92935964004854
C        -0.17400382730214    8.95032269136858    2.09296297402426
H        -0.92547980076408    8.19224095364673    2.24781858327855
C         0.62120169086550    8.92344612830917    0.95841288140647
H         0.49002879659186    8.14446838924844    0.22355969652661
C         1.58839254326680    9.89624416116315    0.76873930583422
H         2.20954337587523    9.87644147046845   -0.11412126894260
C         1.76797274265576   10.89866612605669    1.70682319292311
H         2.53088961909818   11.64524676835080    1.54190101691944
C         1.46315482515185    9.07565457090222    6.12249437367728
C         2.27637356706151    8.32197750147611    5.23049975530575
C         1.71298529125521    7.24495225163096    4.56689464140732
H         2.29380453041851    6.66890775510069    3.86820449771294
C         0.40116111611583    6.87343953275838    4.78253010371727
H        -0.01558341448999    6.03028726738532    4.25363033324704
C        -0.36606055091992    7.56336930547954    5.69920406787130
H        -1.37362072231167    7.22557384162387    5.86806041432543
C         0.12868825183266    8.65969152324949    6.39004532600171
C         3.76083135933568    8.64276082945184    5.04991581630588
C         3.96224933043698   10.05912422822657    4.49437943945654
H         3.63415016363407   10.82224520945663    5.21842888928689
H         3.40535625953335   10.17335933575962    3.56595177043470
H         5.01735200153155   10.22064124454931    4.28608540623227
C         4.46596116161222    8.51375120094031    6.40607625450952
H         4.06827710412193    9.23648554999019    7.11425595124601
H         5.53412831835094    8.69266003929466    6.30039593014584
H         4.32085211236293    7.51433642716646    6.80904901463616
C         4.45788428306190    7.68671525247738    4.07318366623579
H         5.51146135211274    7.95072097424741    4.00605489657635
H         4.02970155152856    7.75691846070542    3.07589469113250
H         4.39811356457314    6.65910005525161    4.41962602335899
C        -0.78221977450764    9.39778154828707    7.37686611958917
C        -0.07489797599459    9.66401445444914    8.71279342612051
H        -0.78055154659909   10.08950051066666    9.42443205261759
H         0.74907812018077   10.37355224453701    8.59728503667632
H         0.31068067570910    8.73285526000896    9.12137688055510
C        -1.21202591229834   10.73434763204041    6.75693826671192
H        -1.85509226927117   11.27183277367321    7.45135078077602
H        -1.76503784520300   10.57355480393410    5.83158766958466
H        -0.32625764827445   11.35202924581771    6.54887728030201
C        -2.05882804166267    8.60893922913321    7.70462978188130
H        -1.82011591866100    7.62082530127890    8.08905605820956
H        -2.70786164197843    8.50991112187035    6.83839428318284
H        -2.61738724664379    9.14234025109566    8.47078986306143
C         1.33244893256104   13.92675663627965    8.62580236528158
C        -0.46106978336889   14.03837337731116   10.12910011079997
C        -1.51386033047316   13.62780405607762    9.31578674838869
H        -1.37739162995336   13.59463750152201    8.24436368901993
C        -2.73111779048329   13.28868439156690    9.87309149067204
H        -3.54137800601479   12.97995013224677    9.22597838301189
C        -2.93606172142256   13.34170648059916   11.24594403079666
C        -1.87943705452037   13.75760396653777   12.05049028555239
H        -2.01003968484953   13.81592435333829   13.12046806803222
C        -0.66200254580535   14.10979960530112   11.50621135683418
H         0.15082275534416   14.43615031893398   12.13663651604151
C        -4.27420455696286   12.97268447420640   11.83531843655135
H        -4.93375125030300   12.66402193526669   11.01619791046077
C        -4.91023431300217   14.18000222638737   12.52795723346027
H        -5.90103960667711   13.92261030636264   12.89469364775340
H        -5.00358345305233   15.01125802331470   11.83239157758585
H        -4.30625608958888   14.50477257880948   13.37124417063776
C        -4.14154935805369   11.79849692151576   12.80747149761528
H        -3.52838674524800   12.07044824544459   13.66266382165253
H        -3.68290502624952   10.94443483726040   12.31328498857094
H        -5.12237674068946   11.50160296958587   13.17107040312047

