78
CSD_code = ZOCYOH | q = 1 | S = 0 | Stoichiometry = C28H44NO2P2Pd(1+) | MND = 4
Pd        9.93696147125970    1.77220137279924   -1.47311671143694
P        10.71486161287499    3.75829776496444   -0.77012675929344
C         9.48148608515915    5.09051280811913   -0.41294959408786
C        10.01312546371212    6.36033348909381   -0.16959827592348
H        11.08150692674555    6.49032091179671   -0.10654393408047
C         9.21480508160275    7.47386292302039    0.00790687938158
H         9.66792683325882    8.43409252016524    0.19942394672260
C         7.83890552119840    7.35053918986629   -0.07138382104958
H         7.20104829921680    8.21369783970494    0.03788596627115
C         7.29170404645806    6.09870867468956   -0.26988924477642
H         6.21965319512832    5.99105719642851   -0.30583440128663
C         8.08491768739067    4.96318122666132   -0.41948195211405
P         7.19501838272728    3.36168134448432   -0.50797139475428
O         8.14136150398628    2.23852941657127   -0.29528137245549
C        11.84179105441653    4.64711912627459   -1.97257309210943
H        11.84811710314509    5.71704217661528   -1.75177608267939
C        11.21996036131194    4.44952045341341   -3.35535118663357
H        11.88341296064491    4.83399174959810   -4.12648402114156
H        10.27240451176124    4.98131074187651   -3.42863009056105
H        11.04710886169584    3.38300902391728   -3.54544533711799
C        13.27846204242141    4.14219522559428   -1.94484419813016
H        13.32189892232869    3.08320545523111   -2.18481586104261
H        13.74269502979246    4.31088613780444   -0.97626825081767
H        13.86108881775758    4.68197104519133   -2.68883126148331
C        11.60486178731315    3.44820571084318    0.84339970564330
H        12.59523252680932    3.08379253280904    0.54512849757533
C        11.79094978844875    4.63933122205247    1.77577396647777
H        10.83656151356267    5.08254005016114    2.05226977106912
H        12.41994901368554    5.40401622397757    1.32630368532444
H        12.28198940877378    4.30350560941821    2.68748816380726
C        10.85930697877813    2.30750298045734    1.54501565023636
H        11.41506243446055    1.97585881113535    2.42029544104150
H        10.72344728790463    1.44117752600861    0.87038410786393
H         9.87649600513982    2.64431215819614    1.87452948399762
C         6.46592687790909    3.26645357938236   -2.24777800475466
C         7.65418396502793    3.40809730636629   -3.20227824611051
H         7.32318410578895    3.25727943101395   -4.22913216912300
H         8.44521780033478    2.66773875551445   -2.98120137689161
H         8.07893330731290    4.41004343331746   -3.12901886084678
C         5.85241112573343    1.87586770445226   -2.37700539815430
H         5.60721527001531    1.66641580296332   -3.41747258120001
H         4.93543113250045    1.79716959721365   -1.79681532092540
H         6.55635643887951    1.12134722845646   -2.02315937074283
C         5.45068980915568    4.35320614025576   -2.58084662608843
H         5.89907100015047    5.34219929109101   -2.51939208333696
H         4.58369920542714    4.31773936571317   -1.92989422876230
H         5.10234914385981    4.20992443492778   -3.60317423655889
C         5.98008249348664    3.26499149654574    0.93863700886150
C         6.70780345516855    3.91451122043881    2.11636703821602
H         6.74851343770081    4.99753013890846    2.01992035142334
H         7.72614376910534    3.53249244000597    2.18744419473915
H         6.19375681250430    3.67613363401932    3.04564102061649
C         4.60980926718375    3.89925520108022    0.74087871874771
H         4.04547032450633    3.38835564830474   -0.03558848398868
H         4.66446976776629    4.95794501570013    0.50370477364737
H         4.04769457591683    3.80348542947909    1.66929127720124
C         5.79937540225515    1.77371517847377    1.22500313254999
H         5.20939871946676    1.64464862900075    2.13030903083023
H         6.76061886780801    1.28756857221101    1.37117519968339
H         5.28241407685912    1.27225954218998    0.41061145287740
C        11.57866098062798    0.96841626090851   -2.25985818388171
C        12.77973301259470    0.85446398468886   -1.56737962786577
H        12.87125620234349    1.27088371383287   -0.57148254133153
C        13.87690202207871    0.20851179822146   -2.11880642433703
H        14.79656025620061    0.14070910258830   -1.55859070870700
C        13.79425396304458   -0.33487508235430   -3.38849971340290
H        14.65063837195425   -0.81239212978509   -3.83715575756758
C        12.59172085700030   -0.29847268480033   -4.06682356433119
H        12.49677932310569   -0.77007296414520   -5.03460855865354
C        11.48536471099309    0.31836436716996   -3.49019553411009
N        10.23865594196696    0.17817122243551   -4.16139483327495
H        10.29873950131409   -0.07306252555794   -5.13969869046917
C         9.08733942150161   -0.09421329956353   -3.51375950084467
O         8.93458932868567    0.07284270351158   -2.30300282748633
C         7.97996301333143   -0.63840368890485   -4.37757752599241
H         8.26741351272914   -1.61018915284745   -4.77512682692434
H         7.78499328308569    0.03025602645289   -5.21334653145734
H         7.07623762480947   -0.75672250785909   -3.78682728367544

