49
CSD_code = ZOCZUM | q = 0 | S = 0 | Stoichiometry = C22H23BrN2Ni | MND = 4
Br        1.54491202112331    0.80165308523439    1.50984635174688
Ni        3.43033412107030   -0.45664298619424    1.72579436115706
N         2.79966708678725   -1.97837847117945    0.73078633069650
N         4.29330467437588    0.99840434089844    2.56323457917738
C         4.82773631728131   -1.65899165018921    2.32467140836420
C         5.93595456004791   -1.50148810970654    3.15131928928791
C         6.71025244859409   -2.58938270817917    3.53328669974142
C         6.39613127326295   -3.87323241213792    3.11554302885941
C         5.30683165508674   -4.07145968047663    2.29225719199435
C         4.53860051507760   -2.97776221833809    1.89844890708512
C         3.43644617572093   -3.06142774905681    0.98088411676622
C         1.83023688623709   -1.95035439527644   -0.33643481738130
C         2.37919598495179   -1.06847284958486   -1.43860992050062
C         1.67478680616069    0.03799102295785   -1.89176556088152
C         2.21325254688255    0.84969041983939   -2.87501694950423
C         3.45851871956806    0.56716226277446   -3.40996948441240
C         4.16484898149680   -0.53668579953447   -2.96312210593120
C         3.62740721340291   -1.35090638066613   -1.98237054396133
C         4.99196448438951    1.82185199614535    1.77509424328126
C         5.61966701889124    2.94377694856892    2.29025944960232
C         5.51632666903715    3.24037944388640    3.64392062353200
C         4.75270201678894    2.38514446291143    4.42805252573177
C         4.14565899773689    1.27555680040091    3.86144941207163
C         5.02145123810493    1.49981882205845    0.31570078234094
C         6.16662436920662    4.45219084938971    4.22653256922344
C         3.27392576065631    0.36728445930572    4.66675517913356
H         6.22890302496708   -0.52129056233903    3.50924666024452
H         7.57152279843582   -2.42900372531870    4.16743171484637
H         7.00314180428485   -4.71019530686519    3.42883977930247
H         5.04312689172865   -5.06333180136141    1.95126110284028
H         3.18489115793924   -3.99828553699681    0.48012193469658
H         0.89011848976744   -1.53068514818605    0.03083912437253
H         1.65001371628669   -2.96662062127962   -0.71783006110050
H         0.71448802961818    0.27653881889346   -1.46124590153601
H         1.65972740204862    1.71145480634664   -3.21688456737628
H         3.88033307986963    1.20601476239210   -4.17218277982947
H         5.13745951658030   -0.76341859373567   -3.37577913536056
H         4.18544303545472   -2.21038897279465   -1.63349095382710
H         6.18164181204552    3.58637593601069    1.63018194846193
H         4.61958454132506    2.57980086236888    5.48111283572423
H         4.87691982051347    0.41826981918011    0.16395826234203
H         5.95726566567905    1.80553906193742   -0.14503194585430
H         4.20096167367296    2.01967849045587   -0.18382926851677
H         7.03816998155453    4.74370128260600    3.64574481131952
H         6.46398445004407    4.27529680390899    5.25741075064561
H         5.46068880939237    5.28296037627121    4.21814231889420
H         3.01076200161995   -0.51958533237339    4.07109415075803
H         2.35229975799262    0.88753664737806    4.92762998301570
H         3.76921399723237    0.05261842964390    5.58281156871519

