123
CSD_code = ZOCZAV | q = 1 | S = 0 | Stoichiometry = C52H64N3OPSSc(1+) | MND = 5
Sc        2.79140091338337   13.85570250680032    4.29692916558562
P         5.50502372776623   14.33248473883371    4.60192342556070
O         2.68525210459949   13.13440390697727    5.93967383335249
S         1.93107462753521   16.20780749452110    4.19119338404863
N         1.13946767062533   13.48668125782449    2.77286046541416
N         3.80440782308364   13.91287778563694    2.15287625258118
N         2.73626320766415   17.54169184750112    1.97942568323072
C        -0.28374877642551   14.44238727720429    1.00378560882778
H        -0.04600257700145   14.21007046823305   -0.03402758246221
H        -0.66109796027231   15.46500579391928    1.02588186880523
H        -1.05734531104645   13.76127186348761    1.35023469299939
C         0.94874767587037   14.35388260816509    1.84620199137082
C         2.00027553828926   15.35977165447452    1.50015362702001
H         1.70559187097286   15.86895922802656    0.57925668690461
C         3.37678283643243   14.78321026709558    1.31452738755978
C         4.10585670497802   15.40084629621638    0.16942286779626
H         5.16908543781134   15.18593998328015    0.15067554386715
H         3.95936214153140   16.48096623661038    0.24389884800696
H         3.66218560803729   15.07378163288129   -0.77093281274946
C         5.15263779532015   13.37176703024958    2.01617866580721
H         5.47024227040106   13.32551914571666    0.96885594657624
H         5.13354800689694   12.34862902810960    2.40710209645580
C         6.11333156117332   14.23345644988003    2.83904411136347
H         6.10680318270826   15.25796402243501    2.45081454102106
H         7.13801647805379   13.85641215123609    2.79505001098555
C         6.28236459190096   15.92862519368143    5.03439862751607
C         5.51554459206936   17.08191681395923    4.88801890136823
H         4.47514478138329   17.00881641986615    4.59265041851251
C         6.07438313748574   18.32340441074952    5.12975463817900
H         5.47196819953461   19.21130667949047    5.01446041691984
C         7.40085216295158   18.41828585377903    5.51846649524882
H         7.83768411162382   19.38572494318694    5.71227004676318
C         8.16772965567814   17.27256690596798    5.66107383629935
H         9.20186477751266   17.34776578867699    5.96153593670657
C         7.61607703346860   16.02749361739600    5.41788211017592
H         8.21705493492837   15.13672145527365    5.53164269319899
C         6.54806248705567   13.12481781679187    5.48686549194079
C         7.15408709991712   12.03298974967767    4.87237647553004
H         7.08412618762161   11.88629591114868    3.80320191958805
C         7.86878309579063   11.12016621165551    5.62972167785841
H         8.34113600678134   10.27926393965455    5.14404903837298
C         7.97876761749886   11.28208461232811    7.00004527247115
H         8.53670935851951   10.56709828468027    7.58423771577545
C         7.37218730807936   12.36402979195076    7.61793483699283
H         7.45812314970975   12.49731575163955    8.68475474494897
C         6.65351436393585   13.27440865043097    6.86846907971573
H         6.17518478855521   14.11506799293113    7.34962070023981
C         0.21755380254638   12.40089834035635    2.90049184302844
C        -0.67980094013768   12.36362930453733    3.97854906943558
C        -1.52797096371230   11.27075488205163    4.09317586336937
H        -2.23815532619854   11.22498507469962    4.90082810266193
C        -1.47675222564623   10.23160844939184    3.18341702534474
H        -2.13760294441847    9.38618704595079    3.29336604711506
C        -0.58767600707961   10.28079682783707    2.12856141596315
H        -0.56127924449832    9.46814211551138    1.42027159841092
C         0.25863155666452   11.36757536468117    1.95081696522679
C        -0.74150746569309   13.51406025652871    4.96082875656786
H         0.29124872615638   13.90569792486097    5.09321201669279
C        -1.60686335359944   14.64991776900716    4.40154432447696
H        -2.59075097477986   14.27444199439736    4.12789023457675
H        -1.14847836255652   15.10570064358680    3.52812808004435
H        -1.72871328196608   15.42361197710418    5.15541308620137
C        -1.27219657275234   13.10259622160181    6.33365445569239
H        -2.33293749630234   12.87003188165878    6.28670460269063
H        -1.14723700757892   13.92568227772300    7.03216503734416
H        -0.73426583634254   12.24003683135982    6.71976879374393
C         1.18646799324077   11.38621817789943    0.75385132555767
H         1.70412709641820   12.35114376821976    0.70527056616708
C         2.25784886999607   10.30087926833514    0.88350340041664
H         2.88269706551281   10.49150515724839    1.75301044953737
H         2.89016185706224   10.29242115390149   -0.00154469259850
H         1.80485544053575    9.31880890437433    0.98950736799772
C         0.40380417194633   11.19888842995516   -0.54981018363455
H         0.03007992578771   10.18275390184305   -0.63492062835318
H         1.05047965609794   11.38930744629917   -1.40349053365966
H        -0.44599335144109   11.87533611534901   -0.59976677960620
C         2.24959679512966   16.50981469333825    2.52408006533466
C         3.06952487393989   18.73846100499869    2.58695322738049
C         2.28885115242455   19.34800720800116    3.56828924087611
H         1.38426206140313   18.86587013431416    3.90416460289066
C         2.66386178462595   20.57466430800108    4.08175769771134
H         2.05139900530036   21.04454423630348    4.83673947273658
C         3.81540762068718   21.20171277014981    3.63471252004024
H         4.10362442880043   22.15916694728739    4.04138225574777
C         4.59065025639713   20.60130249007909    2.65423923941410
H         5.48535356556290   21.08925013992162    2.29702997068371
C         4.21756827213003   19.38350078534464    2.12275140609951
H         4.81480903450896   18.91019264035175    1.35738545736742
C         3.26803473850136   12.56520214631885    6.99337690498685
C         3.50349006104889   13.30812602692072    8.18478419427201
C         4.20977244440304   12.69571630827622    9.20765718039181
H         4.42333206713704   13.23357641168285   10.11483779679756
C         4.65799476123772   11.39363810907869    9.10482656854828
H         5.21921880787299   10.94847782436324    9.91162406387911
C         4.34395745330466   10.64576586360367    7.98767970222834
H         4.66213296441008    9.61840044728900    7.95829285073755
C         3.63245191112408   11.19203755082196    6.93283193477177
C         2.95953763424392   14.72474183423220    8.37508587646971
C         3.64214944487671   15.70292593721527    7.41200547269846
H         4.70719434252400   15.78072788079423    7.62561453304969
H         3.20458367127244   16.69411500271953    7.51390705693527
H         3.50385433477052   15.37599323236770    6.37381009413595
C         1.44823733628869   14.72374778154039    8.11047925861687
H         1.24621499260321   14.49778901194992    7.06469495892196
H         1.02911167264074   15.70193832476594    8.33557470204350
H         0.95780742076576   13.98087853792514    8.73559175879971
C         3.17353840977967   15.25820601687039    9.79722490803267
H         2.70303210846516   14.61323151020039   10.53463440712579
H         2.71903070541562   16.24334024275347    9.87553106977351
H         4.22963594166008   15.36493961238958   10.03266598175867
C         3.20496879062961   10.31534717725824    5.75538913491783
C         1.67838608629185   10.36776826147741    5.60641637669375
H         1.20641562616653    9.97699796847147    6.50479362438874
H         1.35612312994184    9.76627137115658    4.75807246220498
H         1.33408602752265   11.39063496898683    5.45278915725691
C         3.87722991596351   10.78736255062008    4.45871381477126
H         3.71269900241883   10.05070353791277    3.67384339658121
H         4.94957499498876   10.89051124193827    4.61861518846391
H         3.45970932933731   11.75595470889555    4.12032307164640
C         3.59452231329059    8.84281104034592    5.94230797898307
H         3.16377719693719    8.43744490671179    6.85319901143424
H         4.67428575709735    8.71784645153419    5.96851524705987
H         3.20891294646830    8.26226786604702    5.10657010961579

