49
CSD_code = ZODDUR | q = 0 | S = 0 | Stoichiometry = C21H27Ta | MND = 11
Ta        4.15830665980968    2.91786974503803    3.24430546957016
C         3.84356635218259    2.73718091402302    5.50434960497476
C         4.56171822757516    3.92918449067281    5.22144559899636
C         5.18990773202518    4.94426398891606    5.64818584052640
C         5.84990949755385    6.03487472136266    5.96402899165271
C         2.99919924804750    4.65101733386865    2.36249728887340
C         2.58112161824786    1.35834086683153    2.95875810566095
C         1.82147190352694    1.35703546737714    1.79272729302005
C         0.94408253732830    0.32423351252787    1.50010420462433
C         0.80988549483918   -0.73951136258019    2.37451363297956
C         1.55441100788451   -0.75737038432753    3.54125628745348
C         2.42550143852124    0.28247542152109    3.82314808363131
C         6.18033682450393    0.54422820214800    3.72887841127004
C         6.81807306609400    1.77320829947266    4.03944541610206
C         6.68706130761323    2.63397750150487    2.93698660803478
C         5.92759807809357    1.94224607802959    1.92489232565337
C         5.67057029297751    0.61980588692564    2.42993490019953
C         6.11054285888929   -0.63885977071079    4.64131444931819
C         7.54894512533223    2.10600755149959    5.29946316951058
C         7.37043103469105    3.95726393659838    2.77963710069082
C         5.91695388027003    2.30272155330680    0.46529894639966
C         5.03275806997566   -0.48236386323485    1.64834132842135
H         3.51155076240394    5.58130798062655    2.61202907399194
H         2.94766909163669    4.59107972984020    1.27246824892435
H         1.97559877913949    4.74247925344523    2.72866908055751
H         1.90374850174819    2.17912554967176    1.08865326685637
H         0.36620486442109    0.35040440916188    0.58644534582968
H         0.12930530204832   -1.54759966056838    2.14834589957625
H         1.45675283787286   -1.58361532231278    4.23188409118085
H         2.99962155030569    0.25023075086929    4.74018024798338
H         5.87037814081062   -0.33286319686049    5.65899896310913
H         5.35195222654661   -1.34118970209553    4.30566444491962
H         7.06893217375775   -1.16056770355143    4.66572582013990
H         7.56636281202679    1.25626022040717    5.97637285905286
H         8.57803863851233    2.38983645437833    5.07616043507679
H         7.07474899657015    2.94800405029101    5.80896866742072
H         7.36721553270605    4.50441063709281    3.72181668951083
H         8.40974078423420    3.81386548441705    2.47556394700676
H         6.88185424875843    4.57086819289679    2.02297201033293
H         5.91656898276283    3.38401607145865    0.32227071762915
H         6.80361862326360    1.90107025982122   -0.03016226035471
H         5.04095013786309    1.88716412502924   -0.03446808766374
H         4.31513192268244   -0.09051418470922    0.92944845953995
H         5.79242196008237   -1.04211382084867    1.09850353314334
H         4.50759934153741   -1.17623466006860    2.30129428001724
H         4.39250565661077    1.96317768205947    6.03789683270643
H         2.83017319856697    2.86665099476717    5.88160896511925
H         5.34805862553207    6.98116745699537    6.08485708420851
H         6.91024405160079    6.02084885700181    6.16161832661949

