141
CSD_code = ZODKOU | q = 0 | S = 0 | Stoichiometry = C56H76N2O6Ru | MND = 6
Ru        5.08140386869994   21.49370692115586    7.16640044736771
O         5.01482246710994   20.66111568387040    5.23507815839441
O         5.90888342679501   22.40212295845149    8.87634583606958
O         5.14773306531312   19.66206729159681    8.20148673056391
O         4.25337060147672   23.24950609090027    6.35090150959694
O         9.51203778801277   21.89538060889066    5.88722885578407
O         0.64538388194098   21.02629621821133    8.40370365970344
N         6.84518019268475   21.65983248060145    6.65511884990833
N         3.31644518432442   21.31301131444098    7.66821081683734
C         7.24617595277036   21.24578358613420    5.44471273685713
C         6.17210213086942   20.71274663645013    4.67473505546828
C         6.49644045790041   20.29567514811088    3.36193270740203
C         7.82047620939559   20.39542038034137    2.98241176879170
H         8.06010047254630   20.05946481386647    1.99055251993622
C         8.89402383532365   20.88751373878341    3.74872957093704
C         8.59006233141492   21.35041806544442    5.02390531864213
C         5.39540890242226   19.76646147751887    2.45866242034691
C        10.31838500304391   20.85195670356109    3.20617688847798
C         7.75182008153523   22.18649619326060    7.49023263350220
C         7.17728740154783   22.56738451097079    8.73758708987609
C         8.07432731902533   23.08812177205729    9.70052861755156
C         9.39435822480512   23.22358804011576    9.31814709455685
H        10.06425570369274   23.63583733759959   10.04985266784019
C         9.96361344696356   22.88171826570168    8.07675278537732
C         9.11135200159975   22.32032474584504    7.13282017529686
C         7.54931414595742   23.46730753849345   11.07485893222125
C        11.43182829717900   23.17209301704695    7.78639946725243
C         2.91345378770426   20.24705392348446    8.37423952322419
C         3.98759253487066   19.35781164851482    8.66773982694142
C         3.65944044640861   18.22487780734465    9.44983699381005
C         2.33200081153886   18.06605329787189    9.79598796556553
H         2.08931136058730   17.19269062820480   10.37256935893657
C         1.25841705578276   18.91927977155822    9.47778439482020
C         1.56651204979536   20.06826968878618    8.75849953053314
C         4.75984690799638   17.25836257343756    9.85381471087318
C        -0.17031067650720   18.55085823729504    9.86147321299130
C         2.40898512626098   22.23504693374284    7.31699518755008
C         2.98392474685544   23.29401455157971    6.55617995024278
C         2.08605236001121   24.28831627557690    6.09979391006732
C         0.76617948502226   24.16600772512827    6.48734469402753
H         0.09630857038055   24.93670894494005    6.15352261144702
C         0.19712528613652   23.14353142019599    7.27003871747869
C         1.04839865440191   22.12287515240326    7.67752871403831
C         2.61009441008451   25.41738377383701    5.22871140527336
C        -1.26854508504470   23.20303177390922    7.68535976288540
C         5.89726762007970   19.37848013125281    1.06610346657815
H         6.63086744398509   18.57733250220328    1.12102841141119
H         6.33536626328561   20.23237371344938    0.55434680791864
H         5.05863922837037   19.02411939384673    0.47050141731148
C         4.32913538170176   20.86067427790778    2.30960497124924
H         3.93186731491403   21.13515548663141    3.28281891437023
H         3.50997091358343   20.50553269506203    1.68809043587075
H         4.75843743504140   21.74731493356322    1.84703818409258
C         4.77517927773467   18.52951947784060    3.12190405759193
H         5.52341142859908   17.74807223179817    3.23973985565819
H         3.96142370705268   18.14362608487332    2.51169009364518
H         4.38345069324952   18.78605766010007    4.10212900634775
C        10.95758609856023   22.24161149771399    3.30697329449605
H        10.35370166580946   22.97184606629904    2.77196739551051
H        11.95286032349762   22.22872542106017    2.86797853197892
H        11.04796288887484   22.55508041847622    4.33926924758414
C        10.39455510303302   20.42245386065676    1.73678169825393
H         9.82895049316977   21.09799981974036    1.09933700984023
H        10.03516245430284   19.40608938328374    1.59591638421868
H        11.43401937666682   20.45062021426565    1.41612616149875
C        11.11345324358611   19.83234256802000    4.03428305441666
H        12.16044716417878   19.83865623729481    3.73939898798828
H        10.71435160591570   18.83230215863810    3.87708777447637
H        11.05168814056214   20.05556780629873    5.09460711198393
C         8.64121038080164   23.99166372902788   12.00998970135023
H         8.19983856012423   24.23066285502542   12.97522473074510
H         9.09519158467138   24.89815771036682   11.61606352381933
H         9.41394631644414   23.24323135388600   12.17031968271564
C         6.91690206378701   22.22027311082757   11.70837608222767
H         6.50460025761289   22.46271182319667   12.68543444743470
H         7.66293527539204   21.43721818737431   11.82954168869177
H         6.11643131515139   21.84220358226428   11.07861617926803
C         6.48170928918172   24.55607103446982   10.90356956926468
H         6.06474684184300   24.82954273030690   11.87043144670515
H         5.67804865223738   24.19659209732068   10.26720708583194
H         6.91617842577220   25.44368490149054   10.44773730743898
C        11.49317953964875   24.26433694812568    6.70900738143123
H        11.08354849076533   25.19443505545603    7.09782720678685
H        10.91674017461006   23.98386556435405    5.83330116061990
H        12.52278791482860   24.43895028801981    6.40463807467055
C        12.20134743769846   23.67987644977071    9.01083121528053
H        11.80868781369169   24.62912839231850    9.36682739911960
H        13.24095265601849   23.83839419043469    8.73114668808241
H        12.17919540327751   22.95294979927273    9.81934584661651
C        12.13604951267367   21.89921966969827    7.30292199259363
H        11.71172997897578   21.54936145678677    6.37035346726049
H        12.03920871969819   21.11151704359824    8.04745217814244
H        13.19417105725815   22.09437341617071    7.14241383230387
C         4.25324210945219   16.09939813339888   10.71508089767416
H         3.80409264940541   16.46200919206586   11.63689009522910
H         5.09149449573130   15.45827947301059   10.97949457192096
H         3.52749075897085   15.49548723334116   10.17509552875238
C         5.39536593489435   16.68537286899919    8.58009654988459
H         5.79047294945143   17.48819737930324    7.96410343990047
H         4.65509082369718   16.13539228727162    8.00225579652188
H         6.20903089506840   16.01033409605170    8.83651110423730
C         5.81514574203543   18.03807304895626   10.65053814675026
H         6.21520720044303   18.85121600344276   10.05133866317639
H         6.63409578686251   17.38054077478281   10.93411003409840
H         5.37515887396657   18.45606711245186   11.55391809520185
C        -0.25553975573688   17.30243865937851   10.74658675949979
H         0.29297811461341   17.43988131626892   11.67547900727403
H         0.11780744049480   16.41987348216665   10.23306932482345
H        -1.29865383104399   17.12025554759941   10.99728079900966
C        -0.94489757721508   18.26095408003309    8.56770123173216
H        -0.87865679330181   19.09458082458283    7.87591414122045
H        -1.99402021380491   18.07579565648113    8.78738530866863
H        -0.53271713347590   17.38204025759082    8.07602763658272
C        -0.82480095620465   19.70159567582582   10.63427689222229
H        -0.23984574034177   19.93806274846738   11.52087232278171
H        -1.82768577779737   19.41942991909781   10.94748299838118
H        -0.89999085317577   20.59060763085388   10.02096867892040
C         1.51706765563804   26.39649569307301    4.79480809659802
H         0.74448444799418   25.89257738985589    4.21847419504102
H         1.95737898371984   27.16658365701763    4.16497140108716
H         1.06308884495890   26.88583469711033    5.65355526191799
C         3.24329079172150   24.80030672031203    3.97377105662312
H         4.04573783193750   24.12231349615416    4.25076169783883
H         3.65312233923993   25.58091386578123    3.33650278010212
H         2.49830209018559   24.24406155551629    3.40806291678945
C         3.67680422637300   26.18688399932340    6.01886230552815
H         4.48022574305164   25.51797248169389    6.31402076675364
H         3.24143760476982   26.62477260499395    6.91500852097691
H         4.09427830039938   26.98486876069061    5.40861095095588
C        -1.31874802871410   23.40936268342599    9.20616529749383
H        -0.89609501969160   24.37821191517508    9.46464425215846
H        -0.74863515003458   22.64512051912521    9.72465181044542
H        -2.34685579016904   23.37377500666334    9.55962615227218
C        -2.03546847061067   24.35800209047865    7.03190387589904
H        -1.63266455525455   25.32422148497133    7.32545783725254
H        -3.07248774074305   24.32072086745614    7.35953269898342
H        -2.02385471073500   24.27521837732860    5.94763259023608
C        -1.98282042360366   21.90407008015874    7.29518875362404
H        -1.89344271137442   21.73412823666419    6.22407854488183
H        -3.03908174550517   21.96726771501522    7.54778275913374
H        -1.56070281148203   21.05503160365515    7.81775350470008

