78
CSD_code = ZODLUC | q = 0 | S = 0 | Stoichiometry = C27H35B10IrN2OS2 | MND = 8
Ir        5.04552098344223    3.39285765014694    1.60027192141945
S         6.33382367934669    1.78298523632983    2.91650208717040
S         1.34964388624676    3.64254393743289    0.05689070670749
N         6.47314136315102   -0.88154533549059    2.70992168847696
N         0.61913001989536    2.16823422809787    2.13334903430514
H         0.70270129924976    1.26754418166403    2.59159449090741
O         2.78972207026216    3.79468777766907    3.52886638980420
C         4.68696242643095    0.09411418415015    1.48136011482720
B         4.06227706248888    1.60456044977201    0.93493486868097
B         4.87599597458733    0.49579263306433   -0.17003266965101
H         5.94756919162788    0.75147430890136   -0.56897370056419
B         4.54285547715969   -1.17354374848095    0.32103378171187
H         5.40633991475443   -1.95955687784968    0.24221757207127
B         3.52022807413810   -1.15024050703885    1.74864674653249
H         3.69137842751978   -1.90541135401759    2.62582586892169
B         3.19906797871554    0.53771028222015    2.13343020363166
H         3.10178445101019    0.95777871033426    3.22435601086138
C         2.38243044434653    1.22966609992083    0.80784560182745
B         3.34246912508788    1.25302017873337   -0.62683204115194
H         3.17889970758074    2.10084779076443   -1.41119291407120
B         3.65026110726430   -0.44707424082406   -1.03609529535965
H         3.80797186073064   -0.78399281402489   -2.14885159669913
B         2.80148647504278   -1.46927057512224    0.15415306926239
H         2.35624331220412   -2.51634687195292   -0.13122323305056
B         1.98300828781158   -0.39946024689868    1.29810839812396
H         0.94140636101410   -0.61227092719229    1.80229425656391
B         2.05994389566743    0.05377373511090   -0.40709953776305
H         1.06605310274741    0.16202861308743   -1.02064155345819
C         5.87105926495265    0.17173750565618    2.35999113287838
C         7.63220328741223   -0.96018447543873    3.45006410780609
C         7.62920444098380   -1.67377121612810    4.64827346798111
H         6.69706442803253   -2.08010471722041    5.01103972538523
C         8.79999784593077   -1.83635329547271    5.36126683931602
H         8.78532845309388   -2.38124195729576    6.29439748695154
C         9.99068593404473   -1.30991877928529    4.88675150991884
H        10.90495463215338   -1.44275856255955    5.44606868754378
C        10.00252516790640   -0.61611268896028    3.68820888434744
H        10.92892006806708   -0.20808118571667    3.30891980785016
C         8.83498611076452   -0.43716738485954    2.97356218075527
H         8.84099559354551    0.09415182895908    2.03246277275819
C         1.41573224611336    2.33244975957319    1.05514380789196
C        -0.33276448046804    2.98850967690595    2.74095710690609
C        -1.16936933368384    2.37246874486754    3.67528993622240
H        -1.05954364653267    1.31429504337289    3.87166877081185
C        -2.13130200153102    3.09973335909597    4.34562152767683
H        -2.77267641973827    2.60653245489667    5.06110153327529
C        -2.27097935424725    4.45698719553290    4.10266812648639
H        -3.02330670732889    5.02738020372029    4.62590010602429
C        -1.43375389680564    5.07382275830585    3.18961367452603
H        -1.52727762736349    6.13294510102808    3.00177708542443
C        -0.46866062244374    4.35357538734913    2.50875254429578
H         0.17646657997074    4.85277428809703    1.80719507445529
C         3.63471995143630    3.60461539678161    2.76648942002749
C         5.78855379344511    4.21439688672418   -0.43611620119399
C         5.05886275805812    5.22291310778458    0.28472595653318
C         5.82876660630384    5.57084872055703    1.45839115323795
C         6.93653586923399    4.71558291894216    1.51149264267856
C         6.88608502747606    3.83767738564072    0.36348598455172
C         5.53264670734191    3.81506581579333   -1.85278278303959
H         4.49706938043168    3.99653228051620   -2.12477062029844
H         5.75537042170500    2.76493273571993   -2.02439533617662
H         6.16627494173651    4.41117316140454   -2.51275160562778
C         3.95249138524824    6.04750591170267   -0.28843930014627
H         4.36022088228823    6.75804313225678   -1.00997831266561
H         3.43732277690214    6.60712870968395    0.48799759591046
H         3.22061377800287    5.42596591641654   -0.79888875333292
C         5.54733764787046    6.73488888980119    2.35529067002541
H         5.96573654353113    7.64572217909210    1.92215047749489
H         5.99059713306838    6.59156441261628    3.33828951243535
H         4.47718783343202    6.88399397038984    2.48410533632103
C         8.07665147750169    4.75868033080492    2.47247705813550
H         7.85650844308505    5.40382871539137    3.31961951562593
H         8.96933660358398    5.13872943252005    1.97205170020786
H         8.30648590336518    3.76275364472857    2.85172907018627
C         8.02412929639381    2.95362525314683   -0.03800231608390
H         8.35563670980095    2.34107890716666    0.79996566742978
H         8.87127733448132    3.56365892813446   -0.35838847591589
H         7.74617487190674    2.29951771336512   -0.86090422385078

