51
CSD_code = ZODMUC | q = 0 | S = 0 | Stoichiometry = C20H27N2OSc | MND = 12
C        13.50175190408901    3.90886221682687    9.26821338724216
H        13.74295321917953    3.03084578706538    8.67428847881146
H        13.30476513003813    4.73888196400232    8.59567197353232
H        12.59741936474577    3.70557612645466    9.83736597766325
C        14.32817420500021    5.44261274356228   11.09446568840014
H        13.42461625272105    5.25188134587584   11.66917226659428
H        14.16871752899329    6.33051309578049   10.48940749173238
H        15.14389828056317    5.63923244888169   11.78566787196367
C        14.66726345698415    4.25682792724648   10.19311943570811
H        15.54974972289756    4.49784002280443    9.58643740021383
C        14.19135968886927    2.48472074445877   11.87171766142309
H        13.20032369645737    2.83198180870231   12.07596575832465
C        14.86586333715173    1.42535075104899   12.37604322198798
H        14.56484955885817    0.68924827771877   13.09327811354991
C        16.22544228595125    2.45691933385544   10.92084891804829
C        17.09416096737635    0.40935916031934   12.02903747208898
H        17.20322170456933   -0.20966189879126   11.13141697993860
H        16.75531967745338   -0.21302192402081   12.86006715519809
C        18.49987113564595    1.01419841433383   12.34862857837384
C        18.37586805994879    1.94243541750398   13.57730972228525
H        19.36386159541141    2.30322463632445   13.84943392866475
H        17.94691999829532    1.41205073804917   14.42477690589904
H        17.75331204920469    2.80312234285880   13.33135455971733
C        19.43418997497176   -0.16406862137862   12.69478829460104
H        19.49075091269516   -0.84489481581132   11.84930220902332
H        19.08334676068015   -0.70219513269649   13.57162327708414
H        20.43025672941763    0.22467225976818   12.88640482028703
C        16.96510351657533    0.65277555864036    8.51486018144609
H        16.24000715018650   -0.07422301123834    8.85162906225429
C        18.35557018114760    0.51799818741838    8.56707331184888
H        18.89847367863215   -0.34967950646129    8.91500315934380
C        18.93580983617398    1.64637624030463    7.93506592453219
H        19.97350295356845    1.72579423023196    7.62373127250390
C        17.86777371549553    2.46778693425134    7.48095586764050
H        17.95945885217392    3.30507456196891    6.80166203956692
C        16.66257812265128    1.85313647869202    7.84802849133345
H        15.67501539834595    2.18643872729097    7.56594557412362
C        19.50437359565534    4.72794892069882    8.98431451952134
H        19.89225806598450    4.80306596893945    7.97642535518456
C        20.24377741155664    4.32833631780158   10.11933735035990
H        21.28304821006332    4.02601823111562   10.12285884035418
C        19.46353396211980    4.59530753410470   11.25938527127238
H        19.79425748495071    4.50812039769718   12.28363463725326
C        18.23307726601477    5.12757713403411   10.83452037822349
H        17.47995740960700    5.55675560849583   11.48223705528473
C        18.25797079031662    5.21472609913523    9.42421616658196
H        17.53527112916901    5.73450391863061    8.80853744865119
N        15.03490120977327    3.10064355138526   10.98826692125406
N        16.09743587469221    1.42186764879673   11.78458878945627
O        18.98558552363829    1.68666654078051   11.26102423972833
Sc       18.31173146333793    2.74666855654136    9.93139059392458

