61
CSD_code = ZODNOX | q = 0 | S = 0 | Stoichiometry = C24H32N3OY | MND = 12
Y        13.97364672077665    7.08659105709681    7.15099354505395
O        13.92726386573631    8.94258405425231    6.23457580168202
N        12.23977291679736    6.38740312209068    6.05613706335964
N        12.20901862108667   10.79952962885844    5.56469812749511
N        10.50729857960390    9.85808825413089    6.53738352278663
C        14.53408185505472   10.06151227086570    5.75376239393193
C        13.46052709776235   10.87347339449633    4.89188998199051
H        13.76148924439264   11.91246670850006    4.76762764808445
H        13.36971213704136   10.38740352551661    3.91974011813108
C        11.51863952300203    9.66749852512760    5.68702729012125
H        11.70572960470381    8.75117115233307    5.15073109972801
C        11.65181296610622   11.72501558868875    6.39599021320500
H        12.04416617997968   12.71583297846352    6.49729916797975
C        10.57793778878535   11.13968398151419    6.99194655164191
H         9.88551331499169   11.54950910906610    7.69626042636324
C         9.48031010987116    8.86338296547461    6.81276470935951
H         9.99646624261452    7.89898708049775    6.91131248868939
C         8.72866553285852    9.18080295696589    8.09739819221440
H         9.42025547036954    9.33233064508986    8.92139646979748
H         8.08619046666320    8.34089849676756    8.34603335726983
H         8.10029186768863   10.06175799265646    7.98199829088451
C         8.53241704668358    8.79134408361357    5.61585251752355
H         9.06931805084283    8.48122410180064    4.72354478581524
H         8.06211283248724    9.75653953028614    5.43603900589503
H         7.75682835716425    8.05792525608416    5.81326245584622
C        15.70355027413462    9.75176704090609    4.79775951138223
H        16.51227788491706    9.28926734479661    5.35778242932777
H        16.07244688033657   10.66059340084933    4.32761220621242
H        15.37441853682537    9.05737935172492    4.02740947752379
C        15.02800107051951   10.98866826857838    6.88182880020249
H        14.19315979327155   11.27657130141709    7.51659699024135
H        15.50887746165513   11.87778396602395    6.47970275519562
H        15.74411470194914   10.44461595117836    7.49364453094600
C        12.09976901026254    6.61718698457886    4.71160440771010
H        12.91641198936924    7.02858995281648    4.13209022585877
C        10.86155476918388    6.20746144876861    4.27122787618872
H        10.48694419960890    6.25963391162200    3.26478764289845
C        10.19434253159786    5.68877306789720    5.39373852551897
H         9.20639006053311    5.26778026374038    5.41867588319308
C        11.06362465360890    5.81694763284707    6.45340697844904
H        10.91941976468324    5.49949768249875    7.47539455044694
C        12.36077116585769    9.12300822146501    9.33961306117312
H        11.70862475518021    9.98126027117628    9.28032786476172
C        11.97605785107348    7.78889202057852    9.25991552157469
H        10.96490410993870    7.41508485936150    9.19688139672438
C        13.13531551196728    6.97871166981756    9.39708781240393
H        13.12316962182305    5.93664969248042    9.71438527787315
C        14.24400083266739    7.87904388560808    9.58948268563158
H        15.22381433693107    7.59960297368331    9.96013415120093
C        13.74090619624054    9.18220623095933    9.55374706582701
H        14.31508928125562   10.08022035412744    9.71443320539863
C        15.90749357703202    6.22464114190465    5.65779119854499
H        16.16451515400032    6.67112859136857    4.70617264558612
C        16.46603928602399    6.57092595272422    6.91419221587638
H        17.23721576587715    7.31385506650095    7.08313540990033
C        16.03368239061490    5.60754468193869    7.85541489565720
H        16.39398029991457    5.50995395055114    8.87111692253874
C        15.20080517913090    4.68676001911076    7.18868398323177
H        14.79039048272586    3.78191219717338    7.61520916733283
C        15.13215061494458    5.06017704459862    5.83283282693168
H        14.64840361127915    4.49794714446457    5.04661467569830

