84
CSD_code = ZODNOY | q = 0 | S = 0 | Stoichiometry = C29H43BN6O2SeSiW | MND = 6
W         6.49370889745594    7.15208358831506    3.21105536566128
Se        8.88933256779818    8.76553748750597    0.88688886594929
Si       11.44627899641567   10.71012608536711    4.59007313819910
N         4.52351103694591    7.28929592639845    2.30631679602244
N         6.25969146375645    5.07934805194243    2.60490992219835
O         9.34275221666401    6.78777014112486    4.44014210530765
N         5.32154367165410    6.48037200705668    4.94340153460013
N         3.58109500170010    6.35440859803714    2.52386984886629
N         5.10073703518234    4.41855878043303    2.77366566082577
O         6.79174285917449   10.18532103803952    3.87899875730060
N         4.29303415767914    5.62743592170920    4.79090138464083
C         6.59549371380451    9.05645543309860    3.72079402578596
C         7.64540064102690    7.87327530407439    1.85793306603599
C         8.25275178384792    6.87338332217533    4.06590382266417
C         4.01081952410048    8.20361801926952    1.48541455581886
C         4.78067440079858    9.38509238192186    1.01734303716235
H         4.91028445955762   10.10501777345995    1.82529502665761
H         4.25710056321728    9.86994687841129    0.19735882997630
H         5.77381589179335    9.07511311012540    0.68343424706664
C         5.43740465071464    6.75435241369176    6.24103018983265
C         2.69738961929344    7.84666905262073    1.16867692511425
H         2.01705473601881    8.37589111776834    0.53299429754718
C         9.82555853274420    9.48548338120801    2.28993671042036
C         5.21042709406340    3.16535539809321    2.29146511006801
C         7.11822843633956    4.25486340055952    2.00898025093185
C         4.45403519787658    6.05511519857310    6.94443013116640
H         4.28297176922753    6.06265491946855    8.00163310516536
C        10.47573193679195    9.96948745404410    3.18884953638891
C         8.50468441597958    4.65637966910127    1.65621648085537
H         8.49732789447125    5.63276742586820    1.16610876180240
H         8.94803021417592    3.91952071610760    0.99136938224096
H         9.12173772688295    4.73807651616731    2.55086785504228
C         3.74506472428174    5.34902098606715    5.98882122706184
C         6.49170488833533    3.02474802167755    1.79078370702306
H         6.91443423297277    2.15421013365434    1.33196739737005
C         2.45795366681440    6.66668103462483    1.84875428100904
C         6.47494234892266    7.67345210649677    6.77830477268857
H         7.47372452228179    7.28718043641056    6.57331416729261
H         6.35237644004929    7.78024462308423    7.85322308305308
H         6.39358734194291    8.65522556124199    6.31081021824065
B         3.88577405509812    5.12487455685339    3.39620785808339
H         2.95639254982296    4.40331740700429    3.45794492008755
C         4.11285182895337    2.16400331586142    2.32187166776812
H         3.78894694656770    1.97595481274238    3.34423169447844
H         4.46193774535921    1.23156209766425    1.88660300785037
H         3.25266297578938    2.51628686278463    1.75464881416142
C        10.21453276012844   10.97712176581356    6.03678808409875
H        10.76468386197990   11.28984307021761    6.93089347203381
C        12.12390709397118   12.37653702073445    3.91120436234656
H        11.26961739818556   13.01550768788286    3.66896683388199
C         1.21803789834397    5.84797046497159    1.87367069758242
H         1.40605059115415    4.84944481551059    1.48209269412247
H         0.45658712163206    6.32630128414972    1.26362366349443
H         0.84226035906911    5.74655529724801    2.89053059537910
C         9.47840546655906    9.68160646262274    6.36582277229973
H         8.91710686889276    9.34217382513034    5.49801381024785
H         8.78202873315181    9.83609528410053    7.18959222454236
H        10.17033394597868    8.89310662567852    6.64936269507402
C         2.58777381002239    4.43770009130072    6.18377848229780
H         1.71501154782653    4.79962955451239    5.64269500540039
H         2.34650920030803    4.38122532787834    7.24182619366786
H         2.81862169777894    3.43727021592216    5.82142467319387
C        12.58312148444885    8.07746915601782    4.65138274247518
H        11.70682767146724    7.71418353706426    5.18016460893128
H        13.42398385231497    7.42792184756156    4.89321324163684
H        12.38168256256622    8.00061306902996    3.58633484095202
C        12.89520699925496    9.52149403407683    5.03670413556061
H        13.77097104594844    9.82843405533467    4.45467852993050
C        12.98238860132618   13.11109672330933    4.93753178801109
H        12.42537114385844   13.29310961155112    5.85404771511601
H        13.31250635987844   14.07239896005784    4.54429920680637
H        13.86797399368962   12.52825909346652    5.18205461126599
C         9.19598833605959   12.06589972273176    5.70806201361533
H         9.68460624341570   13.01755221589754    5.51503500452736
H         8.50366596524358   12.20184492772210    6.53844580053883
H         8.62036278793646   11.78708781904017    4.82935902367176
C        12.91126040641153   12.16721503552573    2.62095877134705
H        13.79392805378680   11.55804658211912    2.80201886873478
H        13.23906752651316   13.12199499367306    2.21143037316787
H        12.29783900897571   11.66456697799589    1.87752133089162
C        13.28189950001803    9.59836321002331    6.51352890902184
H        13.52506074277056   10.61744320563879    6.80597205213795
H        14.15187178962188    8.97221297032928    6.71085955947891
H        12.46754219519375    9.24746499027495    7.14276506904864

