61
CSD_code = ZODQUE | q = 0 | S = 0 | Stoichiometry = C22H30Cl2N2O4Pd | MND = 4
Pd       -0.68029764656232    9.70956175788163    0.00015129566806
Cl        1.07222850381505    8.33230882239580    0.58238494517275
N         0.20610589420450    9.96675559211116   -1.83411467289630
O         2.07395127177284   10.57889319909172   -3.77105810760118
O         1.56374012968577   12.76186714080534   -3.71044487696893
C        -0.56430797679745    9.22219060146734   -2.84915879750694
C        -0.81295446936932    7.83279682517244   -2.31405699029240
C        -1.95453760047471    7.57461605638888   -1.55051711437846
C        -2.14828186236914    6.31268179944616   -1.00696151319469
C        -1.20395181877827    5.31634776049420   -1.19923338808821
C        -0.07219673158034    5.57268635558236   -1.95221356057819
C         0.12199587352748    6.82515293747105   -2.50993069436227
C         0.43107690129396   11.36245357097810   -2.19023480973170
C         1.44727770498219   11.50137720323701   -3.31553010859913
C         2.50845120993387   13.02536673115610   -4.75642868542219
C         2.44838716557538   14.50224307096132   -5.09277704552893
H        -1.51376302332442    9.74788224035563   -3.00140943756008
H        -0.00828455877228    9.17997159645608   -3.79363773499083
H        -2.71760523471051    8.34413885890110   -1.43762802143272
H        -3.04582588273963    6.09941375098166   -0.44163974951876
H        -1.35309901604605    4.34035977183984   -0.76164130492842
H         0.66576843189669    4.79893207768974   -2.10091418634053
H         1.00922842120753    7.02547561840515   -3.09370621977509
H        -0.51601401230930   11.82937447859342   -2.48020877638783
H         0.81059374037244   11.90975577667752   -1.31600242615967
H         3.50535368384089   12.73257166911583   -4.40929822464205
H         2.25376103471823   12.40543763496544   -5.62287536501352
H         3.15812947102400   14.72388046781050   -5.88420769759472
H         2.69428450835635   15.09628276313238   -4.21705629691303
H         1.44923860769215   14.77031183197794   -5.42468014227311
H         1.12236407690153    9.50469032510255   -1.74776902439975
Cl       -2.43352003395007   11.08594325748438   -0.58229886744186
N        -1.56746431553824    9.45165568658024    1.83395607218185
C        -0.79699981261644   10.19612760544673    2.84901837131782
C        -0.54856180292200   11.58559042170473    2.31401586323363
C         0.59283034298723   11.84394240613801    1.55024827189893
C         0.78640819164217   13.10599870303688    1.00690860667114
C        -0.15793050831672   14.10225396969860    1.19956364767552
C        -1.28951296221404   13.84573210897708    1.95274264782826
C        -1.48351851528792   12.59315547756398    2.51027905396124
H        -2.37060043997118   12.39268812387129    3.09423774785098
H        -2.02747938467663   14.61942889909184    2.10175443500406
H        -0.00892327416664   15.07833016528833    0.76212080428135
H         1.68382512069936   13.31942754711184    0.44144389677986
H         1.35597152339005   11.07451643065947    1.43716168620277
H         0.15252645339935    9.67050725797377    3.00110239966501
H        -1.35291302028133   10.23818590526348    3.79357030204981
C        -1.79234165838370    8.05591232052657    2.18999775412431
C        -2.80836274770226    7.91685650243854    3.31544309741991
O        -3.43507951594904    8.83926118205147    3.77107173553772
O        -2.92467602190925    6.65633707556533    3.71031205075340
C        -3.86921909380250    6.39270295561533    4.75641431360081
C        -3.80902189989636    4.91580419892547    5.09264376887558
H        -4.51862697192478    4.69406272810191    5.88416885573293
H        -4.05502096555303    4.32182183958620    4.21691251284434
H        -2.80980507332459    4.64776857404156    5.42436830260955
H        -4.86619272489504    6.68547590923050    4.40947043488575
H        -3.61442922785248    7.01257649654888    5.62287070044973
H        -0.84520103158107    7.58900573383172    2.47983414145831
H        -2.17193258091391    7.50865284308429    1.31576852851203
H        -2.48374484545690    9.91369938791174    1.74769759627476

