82
CSD_code = ZODRIT | q = 0 | S = 0 | Stoichiometry = C38H40NiOP2 | MND = 4
Ni        2.06301170502218    4.01273136200171    5.93563935651495
P         3.15637587744177    5.85986928481072    5.97011009708383
P         1.10619896788961    2.08037416560992    5.62844947087321
O         3.43022980372200    3.42143589950436    4.67056668641971
C         0.68841368017641    4.62975773987823    7.04489158300008
C         0.79664120163413    4.63513014898585    8.43586970500952
C        -0.28364512604592    4.97534702703043    9.23454522636702
C        -1.49535099450524    5.32018399263503    8.66399509738393
C        -1.62033016001985    5.32435364815722    7.28619380023303
C        -0.54263822357315    4.98367863098046    6.48671078049182
C         4.31269491114170    5.57483208836847    4.64963390454397
C         4.26019565460393    4.28673839742280    4.18771759368722
C         5.12125829820516    3.80971735327458    3.08033310446168
C         4.67692705635164    2.74077456369239    2.30438945910184
C         5.43758146970889    2.27441267072554    1.25000561674539
C         6.65833465333546    2.86187114494859    0.96157814142324
C         7.11503013300467    3.91510481587707    1.73722948083638
C         6.35388996560941    4.38746842974662    2.79009374654339
C         4.16269390018182    5.91011208636551    7.54439481106700
C         4.65154954294126    4.47909686131767    7.76624195471816
C         5.32341492930794    6.89358996273505    7.48239181368367
C         2.54928003617740    7.59374365199986    5.71587800804328
C         1.66388791356131    7.57723557332857    4.47324413215938
C         1.78582302667068    8.11932593730242    6.92481560133077
C         0.91724198280832    1.96142460251906    3.82018315664021
C         0.86575786395523    3.16217955708798    3.11799852585595
C         0.76324819443401    3.16179018366470    1.74010825579055
C         0.71249313675064    1.95754613933793    1.05517528912912
C         0.76192848906046    0.75979399988163    1.74989968791439
C         0.86481407721599    0.75675873543441    3.13044993442140
C        -0.58507526043860    1.80026046602354    6.24202452540317
C        -1.70212378035848    1.79430574990386    5.41764728356173
C        -2.96758019118519    1.68007077404095    5.96728765200080
C        -3.12601797416100    1.57916276472554    7.33847751506864
C        -2.01431688356577    1.58885178195591    8.16679157797148
C        -0.75160959745006    1.70361975874213    7.62155123539827
C         1.94726425163216    0.51538493447216    6.02548548313036
C         3.33248948185353    0.48705998893100    5.89123285043696
C         4.03205493272986   -0.67679359424360    6.14948412942466
C         3.35527337909549   -1.81775806965018    6.55026514026096
C         1.97714213201675   -1.79230174556409    6.68827981532230
C         1.27049394593231   -0.63152346422221    6.42685151637903
H         1.73072047912648    4.36426103478726    8.91461002644551
H        -0.17514178768566    4.96896264549671   10.31066887912822
H        -2.33773329877588    5.58144175052505    9.28813479079616
H        -2.56368188120656    5.58788714169728    6.82808237183703
H        -0.67826356623500    4.98314787584363    5.40958933504744
H         4.93603352798675    6.35555466321110    4.24431421257098
H         3.72439748213214    2.28847176784130    2.53976841641927
H         5.07816898889499    1.44935327655251    0.65134283194478
H         7.25561088812545    2.49782253388366    0.13797942184483
H         8.07213332582276    4.36845368338815    1.52090044391521
H         6.72550109548203    5.19907042497014    3.39820825464965
H         3.48189952775959    6.18638952564638    8.35717706988913
H         3.81344567934354    3.77443890021280    7.65970754214319
H         5.40102785177645    4.22050191415327    7.01876293446832
H         5.08979356030548    4.35518977838423    8.75581833036103
H         5.92339660743363    6.82434696698165    8.38924479837616
H         5.96387004521820    6.66587764845300    6.63212491790597
H         4.97004475909202    7.91802887731668    7.38627583720895
H         3.42952186259243    8.22046820812687    5.52397592088339
H         1.33887258992763    8.58298394897562    4.21115707452595
H         2.20526360318439    7.15365100121389    3.62739422343960
H         0.78240245726951    6.96542390556313    4.66157700967883
H         2.43935385089071    8.23518682323151    7.78636545384175
H         1.34825456469645    9.09093161343683    6.69832956376441
H         0.98296977413771    7.43310321230727    7.18943335539190
H         0.93968738680686    4.09756633466559    3.67124148650903
H         0.73452972108469    4.09522704171118    1.19686106453610
H         0.64234119891669    1.95268527678464   -0.02282918145857
H         0.72809045366503   -0.17722813061922    1.21267103068149
H         0.91599251752197   -0.17838641418364    3.67080477047505
H        -1.58235670087909    1.88135797532529    4.34661749241060
H        -3.83391689291123    1.67506036301301    5.32147835208401
H        -4.11561925148288    1.49732705191529    7.76342337038733
H        -2.13615874320804    1.51578619904190    9.23746375324085
H         0.12256514042878    1.72616982388544    8.25897120215785
H         3.84542999565738    1.38475825467718    5.57492183586774
H         5.10655803774265   -0.69596553089326    6.04038838351323
H         3.90063639136755   -2.72739996031903    6.75586223804584
H         1.44805620420777   -2.68207013458773    6.99899702599393
H         0.19485615034443   -0.61695527315333    6.53597141339076

