64
CSD_code = ZODYUP | q = 1 | S = 0 | Stoichiometry = C24H30CuN8S(1+) | MND = 4
Cu       -1.88328991734077   10.50081363957569    5.23051969197604
S        -2.73860085501869    8.44297320503977    5.51524999099826
N        -0.12724654615010   12.71508257332814    5.54031576970420
N        -2.37016474815257   13.38806891746662    5.12873401619858
N        -4.97118822090419    7.59234027168560    4.26222645311595
N        -1.53866794191195   11.32542943312995    3.27998025777873
N        -3.08406927299886   12.27407348248463    5.37947540020440
N        -1.03373680438865   12.57228901634178    3.34686921471002
N        -0.30560298655472   11.45246465512568    5.97178346804031
N        -4.39224700841939    9.65253728124257    3.76033762004769
H        -3.84259733046694   10.50288340750979    3.77835507485742
C        -3.05198648485146   14.50009180823982    5.52524410122564
C        -5.90599184232827    8.06924262042871    3.36398274930311
C        -5.53725997346314    9.38771253194724    3.04172943481758
C        -1.32257409429134   10.88023164041259    2.05618797975238
C        -4.21947378125317   12.65259744326863    5.93569356639790
C         0.97168812229910   13.27002612814256    6.12810882750539
C        -1.03738707442373   13.30772665658044    4.58631933620034
H        -0.68927746719835   14.32605795681157    4.38158463584630
C        -4.05754097130886    8.56247366950432    4.49510030162157
C         0.65834540329997   11.18071114922606    6.82852301408403
C        -4.24556040260949   14.05563378792314    6.04150253179954
H        -5.03428817449764   14.65458508982533    6.44606609309401
C        -0.66485168548672   11.87177252683395    1.30500909518819
H        -0.36157211463306   11.80632296244479    0.28117197799242
C        -0.48637631470544   12.93839222150188    2.15307217899618
C         1.49331801135848   12.30705384059813    6.95787205246991
H         2.36035129057939   12.39480478801168    7.57848924502765
C        -6.28001338897762   10.14874033238213    2.15757871167593
H        -5.99554794132230   11.15943455546032    1.91190374696729
C        -4.97090972417274    6.28210693337437    4.85050685910075
H        -4.88621516624158    5.52078352872003    4.07394098314435
H        -5.89335693443794    6.12143573738187    5.40983348467786
H        -4.12012946785498    6.20771197531645    5.52486130040356
C        -2.52864599152133   15.88073159697308    5.38549554800511
H        -1.64291926170652   16.03035579813605    6.00290389828984
H        -3.28958350068693   16.58283781135740    5.71308753961766
H        -2.27696643424685   16.10921908632196    4.34997749737423
C         0.75236952505421    9.86245872512254    7.49467685479437
H        -0.05774000647283    9.22293815905609    7.14888379152190
H         0.68265931922679    9.97878530367702    8.57457348344990
H         1.70654143884112    9.39070269855067    7.26820946365514
C        -7.02932793398286    7.48248955773015    2.80599935978284
H        -7.31734096754320    6.47284819870823    3.04809004616317
C        -7.40222077538345    9.55512771445771    1.60401715096399
H        -8.00733785331456   10.11664159146088    0.91011726907194
C        -7.76806041724838    8.25031335225322    1.92185663715336
H        -8.64965846007360    7.82709137239571    1.46754497254680
C        -1.75158369730870    9.52827322499752    1.62304288304786
H        -1.82983669568030    8.87050633580486    2.48522503441655
H        -1.03273071086681    9.11722585574214    0.91929389678221
H        -2.72111764881600    9.57629554827079    1.12685844184606
C        -5.25767723892537   11.67705405949254    6.34752458852707
H        -4.80626285478670   10.70074745978029    6.50573478464540
H        -6.02638142185730   11.59086248655732    5.57938573293688
H        -5.73543402334497   12.00714806040631    7.26619848174353
C         0.15516715211596   14.25316013071707    1.90959494734720
H        -0.52242697825442   15.07645500569067    2.13517838942876
H         0.43654396050485   14.32162252752903    0.86295202334554
H         1.05782090286181   14.36699546231036    2.50999015312143
C         1.44034974294495   14.65284146396469    5.86551612868739
H         2.33680553850682   14.83837280757279    6.44966624006611
H         0.68996578764133   15.38881206819839    6.15370773338292
H         1.68485131315619   14.79858076945517    4.81356786337334

