64
CSD_code = ZODYEZ | q = 1 | S = 0 | Stoichiometry = C22H30CuN8O2S(1+) | MND = 4
Cu        2.49447151914959   -1.93414906980183    6.86282635899767
S         3.92243907634174   -1.69212106392075    5.15678862746686
N         0.54592478493731   -0.57724887672076    8.55063892258277
N         2.11742769784997   -1.86923797957769    9.77460102801436
N         0.42055224719382   -2.94826095926171    8.50716319176000
N         3.14985608106747   -1.88673573237711    8.91130107530661
N         1.01349540351042   -3.16634702612037    7.31878374813440
O         4.87351469109678    0.47527103042891    1.44626031651913
N         1.37883205066050   -0.22149597941961    7.55001351271944
N         5.56899089311982    0.43415662799313    4.95748584291993
N         4.50772744187154    0.34453566103006    6.85340458206421
H         3.84793866201785    0.02108167312877    7.55050963608237
O         3.69557579614240    1.23205040417189    3.20383455497859
C         0.75896103400313   -1.78741483444914    9.30110009071951
H         0.09507454363378   -1.77430278381985   10.17264999525990
C         4.25117052529994   -2.05616472303006    9.61785349906094
C         0.52097177704828   -4.28413439512938    6.82334204749221
C        -0.52048528181781    0.27016467516384    8.62138548330941
C         2.55565826545380   -2.02342745395049   11.05617989348116
C         3.92321975910494   -2.14093008860311   10.98398979365575
H         4.60144592959093   -2.27390197043923   11.80060378068299
C         4.65867175249200   -0.27842358581030    5.66434114696604
C         0.97067103811746   -4.81297168998296    5.51609343211579
H         0.13240830979250   -4.87969557031873    4.82511269356864
H         1.38870356624962   -5.81062750276757    5.63575647861859
H         1.73000540824074   -4.15201474937918    5.10159757725833
C         4.66394919613526    0.70549356186964    2.72851922810730
C         5.84502317407884    0.19912156834244    3.57275083282743
H         5.95622471619386   -0.87461102445269    3.39543901592387
H         6.75920915840031    0.71293412841871    3.27320793414172
C         0.86152520715719    0.85145398686409    6.97701482096372
C        -0.33597389663510    1.20191429207295    7.62945125667463
H        -0.97500833756104    2.02746877754198    7.39561933182334
C         5.94909685033976    1.52624932330990    5.70103993234180
H         6.65187716638958    2.24378050485290    5.33238031590012
C        -1.61929194394743    0.12821720368618    9.60740792909380
H        -2.19331220306944   -0.78029340625562    9.42347663522874
H        -2.29140788932785    0.97603403130913    9.51350538186210
H        -1.24093636129221    0.10430673805854   10.62933293264086
C        -0.47261967092613   -3.94085643546950    8.78498566414807
C         5.29815059430862    1.46708987936626    6.88311813380327
H         5.33422719278235    2.12058573534656    7.72906425503294
C         1.65849487182091   -2.03296654156707   12.23721677958772
H         1.07495689318321   -1.11440664813976   12.29759648789663
H         2.25920274245437   -2.11414930789417   13.13823756631424
H         0.97427356265878   -2.88080102958294   12.20959564174810
C        -0.42871980307619   -4.80877498547266    7.72033546313051
H        -1.00075568874415   -5.70451644009526    7.59746190157252
C         5.58720289074151   -2.13217019609563    8.97925637700425
H         5.47539316265546   -2.27543499627460    7.90740739053514
H         6.15125778590435   -2.96331123063307    9.39584233432666
H         6.15232993296385   -1.21894010993213    9.16301716761623
C         3.84129730755973    0.87402430902829    0.54456357347080
H         2.88384145138951    0.45861960715304    0.86219039540535
H         4.12599084007883    0.48561527595896   -0.42911419536846
H         3.76692860735830    1.96230365797004    0.51540012464589
C         1.50508839204640    1.54279815880535    5.83502077281139
H         2.04960063444429    0.84086237056595    5.20925173797685
H         2.20623548157227    2.29754330764978    6.19050158975692
H         0.75174827090375    2.04306290517876    5.23337329521827
C        -1.28134766938985   -4.00145182565674   10.02727552683275
H        -0.64544489632175   -4.12370378760892   10.90414582485553
H        -1.94817102575291   -4.85686116790591    9.97319920681647
H        -1.88725967010842   -3.10538422731576   10.15859412733719

