63
CSD_code = ZODZAV | q = 0 | S = 0 | Stoichiometry = C25H34AuNS2 | MND = 4
Au        4.65318375681589    7.93641130587956   17.69008476595175
S         3.05091963203443    9.28816449305051   16.42913361838523
S         3.77181087180585    9.64139849281687   19.20776462590609
N         2.07982832373687   11.24651471270748   17.93745981758545
C         2.86680427053170   10.18073087642520   17.86869937247848
C         1.93279387780032   11.97029467110610   19.18545543290972
H         1.63970367182076   12.99475948849478   18.94709679746162
H         2.90763903523494   11.98942485802850   19.68147150996581
C         0.91109665916115   11.33174778246311   20.12159681756063
H         0.87618651119973   11.88953731317399   21.05324937445723
H         1.20014694541191   10.30786947040839   20.34237219553927
H        -0.08108846979049   11.33005381641162   19.67854355077980
C         1.31652690354123   11.67100621434285   16.77997933247921
H         1.93107065514332   11.50307363883724   15.89079339041388
H         1.12533960215619   12.74167994084885   16.87761974562300
C         0.00299472395755   10.91017232106883   16.62791819053370
H        -0.65635550657824   11.09086465982599   17.47248938382122
H         0.19885240435311    9.84390855576435   16.55475986876820
H        -0.49801455323512   11.23250385655270   15.71951047148157
C         5.94444762379175    6.91730931592086   18.83313795446394
C         6.18820942679332    7.20225022716952   20.15900091412686
H         5.65185629851199    8.01543579649564   20.62089286192388
C         7.10987250435686    6.46063887355224   20.89786129265573
C         7.77321772193584    5.42308537642329   20.24966003202082
H         8.49617038230772    4.82687560316220   20.78664412283814
C         7.53489286427363    5.12720134882033   18.92200159306785
H         8.06650362387376    4.31409710171474   18.44942853051622
C         6.61579111146267    5.87193289680953   18.19332603035952
C         6.25111637007807    5.69524163411366   16.80082939399769
C         6.74629175190634    4.74480194089593   15.91654328260127
H         7.48817551698577    4.03332071020154   16.24877612544054
C         6.29425699280372    4.70620502980606   14.61224810283204
H         6.70112234263314    3.95637416408944   13.94990072599830
C         5.33916710481726    5.60291153106236   14.14276565081284
C         4.84821917492633    6.55398287841697   15.03701481242293
H         4.10802644512439    7.26888301985101   14.71573888334792
C         5.29352449686207    6.60267016914838   16.33998040669835
C         7.41121151541512    6.75299372833356   22.35913527082493
C         6.57775335929059    7.91002084582050   22.91559325766280
H         5.51437784615670    7.68920275927360   22.85931814215966
H         6.77693571390796    8.83251959885739   22.37544914988074
H         6.83354880772592    8.07106883415472   23.96112313892795
C         7.10839853856414    5.50147119035147   23.19526770338877
H         7.72339127831740    4.66000784200594   22.88857525097752
H         6.06367564272133    5.21886183679598   23.08391873877165
H         7.30279648450792    5.69910487728298   24.24745369624830
C         8.89546881240819    7.12278249407935   22.49312706069305
H         9.12120448425164    7.99545815640958   21.88370787719989
H         9.53745997586008    6.30748132887849   22.17098783236731
H         9.13188454367143    7.35434940515390   23.52971269397532
C         4.87419837773840    5.52313741632503   12.69741347177835
C         6.08044571360451    5.74769732196989   11.77433844880611
H         6.84392090254433    4.99021527965269   11.92878915065890
H         6.52378565030095    6.72249510769306   11.96674600537758
H         5.76764524453798    5.70964727930187   10.73281450617345
C         3.81168683425750    6.57170756110894   12.35880380349528
H         4.19630745787366    7.57939193352797   12.49722720562108
H         2.92469587328866    6.44343361588883   12.97479942132913
H         3.51625606761421    6.46499748519687   11.31677055204247
C         4.27327273528489    4.13374796031123   12.44102824487632
H         3.43628850658191    3.95669922277939   13.11330051736151
H         5.00742178880411    3.34819874691191   12.59696454839281
H         3.91406677623393    4.06527408607958   11.41618533278916

