57
CSD_code = ZODZEZ | q = 0 | S = 0 | Stoichiometry = C25H29AuClN | MND = 4
Au        6.92733618886832    9.83791533868142    2.19429094154886
Cl        5.56117076368026    7.94499782683353    2.41612702515221
N         7.18887939629548    9.07995855536287    0.18081443278007
C         8.09061317819191   11.45721548946676    2.02078963966854
C         8.79839893282446   11.80358452792745    0.88669089719215
H         8.74751654331398   11.15748306032356    0.02497850078319
C         9.57486314418761   12.96018011948659    0.83287321219637
C         9.62395044857829   13.76066849331828    1.97014614723390
H        10.21488876579697   14.66460330704809    1.96963588890240
C         8.93098648466809   13.42695118753855    3.11652962387475
H         8.99148707171543   14.06670282739373    3.98472604194447
C         8.15682172259940   12.27395869910197    3.15529123996075
C         7.37550141602824   11.78642855728495    4.27568591217541
C         7.25171706407919   12.37006238869269    5.52812048302313
H         7.77257987910354   13.29100363371262    5.74659043090815
C         6.46529992548019   11.78220966436022    6.50391211762050
H         6.39638761754288   12.26886531834079    7.46357836470195
C         5.78167848205763   10.59928588488568    6.26131959677629
C         5.91382977095851   10.01561088206493    4.99723136277720
H         5.39760691198901    9.09568969638000    4.77760961034312
C         6.69156099973637   10.59065898004311    4.02086018320352
C        10.35456613593790   13.36730125375751   -0.40797528551789
C         9.87735923009346   14.75405115781919   -0.86461272561093
H         8.80715930613099   14.73802640145573   -1.06228331221196
H        10.39329116334123   15.04703276147262   -1.77685867536670
H        10.07189404520337   15.50844784532778   -0.10748596994847
C        11.84973733419118   13.41797935836633   -0.06268684461987
H        12.42776966771967   13.70844085553706   -0.93761413774766
H        12.19213064522480   12.43968523002531    0.26949648955170
H        12.04786839902462   14.13422429484068    0.73004982912423
C        10.16720354593392   12.39309582525894   -1.57520881512933
H         9.12240501118386   12.33551485698467   -1.87472171453331
H        10.51988763776657   11.39666853056103   -1.31652407849080
H        10.74313273259471   12.73995205463710   -2.43112312313299
C         4.90580041696194    9.91052984556323    7.29444375847323
C         5.47412072805198    8.51208790652445    7.57286853301950
H         5.49137665455236    7.90784531741513    6.67046907790266
H         4.86451983515592    8.00095842718367    8.31524591008021
H         6.49131237229284    8.58781517115976    7.95262526695865
C         3.47943902140360    9.79009524223512    6.74009929410884
H         3.08033136279111   10.77617038501326    6.51007285616352
H         2.83109739782856    9.31718327798917    7.47497595519226
H         3.45737626626354    9.19345774438151    5.83292869196006
C         4.84304339606547   10.67783426159875    8.61822444621323
H         5.82844856162776   10.75929561139365    9.07133532382309
H         4.19694208739815   10.14618122236392    9.31394087149663
H         4.43253521866121   11.67463864355823    8.47368614432716
C         7.66403032096598    7.85093496396738    0.01836054617328
H         8.10824947963253    7.39244426581357    0.88898525414948
C         7.58555324399342    7.17828461556518   -1.18806737273064
H         7.98099590469593    6.17896756064102   -1.27407980239917
C         6.98107708981076    7.80741654826310   -2.26489662479817
H         6.89206314483023    7.30712101991722   -3.21755634243052
C         6.48796446766994    9.09147150776594   -2.09168484649139
H         6.00793027654962    9.62061976062909   -2.89946043319777
C         6.61277574931710    9.68829331105455   -0.85025744405273
H         6.24353744144664   10.68759852570866   -0.66751235306586

