95
CSD_code = ZOFFEI | q = 1 | S = 0 | Stoichiometry = C38H48MnN6O2(1+) | MND = 6
Mn       15.56738610432974    3.67410526064630   -0.43902624272391
O        13.99195529386172    3.74174600184833   -1.31734770010896
O        14.87100042869226    3.71780608099186    1.22153678424467
N        17.29407188750318    3.04285184119572    0.26494137734059
N        16.25775132023470    1.03472069042266   -0.20708525207032
N        15.36971091863037    1.88586430929035   -0.61662725183252
N        16.52700394143699    4.16665788550167   -2.08550661592409
N        16.21938470474434    6.24217659738821   -1.12324095969348
N        15.69766537521485    5.46228661586798   -0.22900996564159
C        16.67554555128702    5.52444757673128   -2.16531801963998
C        13.98930329783266    6.53572394359832    3.31554623969968
H        13.52175555832483    6.77485652646230    4.25373442914893
C        14.35731933962422    9.04521572014560    2.97337954506965
C        15.06663759204523    7.30391274644065    1.31330269401247
H        15.44937258788432    8.06627943485948    0.65464283149892
C        13.74488870734806    0.15322566730780   -1.33905831904082
H        14.38358989821095   -0.65369128041210   -1.02342246502975
C        15.16236616534488    5.97650082812212    0.91946565428761
C        17.33016696966273    1.67511649807315    0.29044186257464
C        16.97215287980046    3.42395682611668   -3.10911881699609
H        16.83697458554279    2.35196709336937   -3.01961366747360
C        14.07059320261864    5.19714139190236    2.96244317412337
C        12.46553966568370    3.31421062396092    2.98518243525226
H        12.05518055312228    2.49312200466637    3.56746155432391
H        12.90132133081565    2.90625118900328    2.07564794466463
H        11.65330808292953    3.98464605005510    2.71112523062370
C        14.47299014989380    7.59581049935274    2.53496456061053
C        14.68660686408184    4.90469258016937    1.72611672395213
C        14.19018002328456    1.45903003424777   -1.15647279009419
C        12.49805469672285   -0.04426980739293   -1.90828911865483
C        11.74102091624798    1.08211731293428   -2.27949359739667
H        10.77294040814814    0.90611513673407   -2.71660011480147
C        13.42347284831602    2.59266867565414   -1.54405618772064
C        12.14905947800202    2.39441433101358   -2.12382930008696
C        12.87429066873862    4.55468862331397    5.10604927433215
H        12.03124549721800    5.21028028969079    4.90197525570977
H        13.59300623621166    5.07596930188476    5.73364272600756
H        12.50326760993378    3.69895972396046    5.66467453562412
C        11.91802205387042   -1.42693403441660   -2.14338976778280
C        10.59980923966822   -1.55642925173293   -1.36573601222670
H        10.19186272324724   -2.55495657006889   -1.49901144021133
H         9.85761859526311   -0.84117622035237   -1.70813101949033
H        10.76985240155441   -1.39345256965871   -0.30387668904040
C        15.76152275182583    9.66721230154408    3.01196477544002
H        15.69632523173750   10.70122324914651    3.34050008581715
H        16.23413579681559    9.65306923349912    2.03434513644244
H        16.39608979808988    9.12507246234856    3.70959000895618
C        18.35146666388207    3.70900092511298    0.75097058696793
H        18.29339160463105    4.79117230998090    0.72082868667649
C        14.67685153006163    3.11567219111771    4.16485807866950
H        15.44217515478180    3.64476050181241    4.72917365815237
H        15.12949687993351    2.70226855086847    3.26657536746669
H        14.30669090882170    2.29344731560210    4.77186780712285
C        12.86096857388071   -2.53963323461448   -1.67910265855919
H        12.39846092587883   -3.50499505522214   -1.86867909737283
H        13.05767022778371   -2.46801968694526   -0.61222072741672
H        13.80273832868973   -2.50918281102349   -2.22159983014941
C        11.65728632942296   -1.60951308981930   -3.64601751567110
H        12.58120090123257   -1.48984769892987   -4.20740960941755
H        10.93344132024633   -0.89109742829398   -4.01968963010988
H        11.26915808787380   -2.60737097963040   -3.83247857372242
C        13.48507778310393    9.79491060165750    1.95480715184111
H        12.49494894663467    9.34734525924014    1.90287410346689
H        13.92409986341119    9.77285845068501    0.96158027616659
H        13.37690011272692   10.83342103631229    2.25655651538452
C        13.72598528712757    9.20418487531860    4.35868188223522
H        13.69234473531359   10.25968562392477    4.61676620436931
H        14.31177410094464    8.69524681693268    5.12050184176261
H        12.70567624360845    8.82815643257352    4.37494892069340
C        13.52243282651133    4.06507333183156    3.81014350723272
C        17.28067300346438    6.14020600131923   -3.27427652281637
H        17.37063526865353    7.21336970616371   -3.27376279765249
C        17.56716640255841    3.96852792345674   -4.22341678475364
H        17.90099977049262    3.32568937008882   -5.02084354221891
C        17.72481370566769    5.35659501519304   -4.30798828422881
H        18.18856357677039    5.79825764588254   -5.17583758901996
C        11.31024418700697    3.59674137816324   -2.51299720038812
C        12.08871865216314    4.42250037723995   -3.54817337431825
H        13.03608035821116    4.76510539811520   -3.13841137022267
H        11.50678801545512    5.29283565596107   -3.84052379187902
H        12.28816104995539    3.82582587158679   -4.43612092396927
C        11.06333013809595    4.44015927073447   -1.25274323085592
H        10.52434505588477    3.85791243520822   -0.50788790725755
H        10.47061152161696    5.31635708564175   -1.50309379520967
H        12.00366694088109    4.77402195327287   -0.81930863435448
C         9.95902605030692    3.20575454506080   -3.11354777647164
H        10.08627292536292    2.62267834871589   -4.02258317618833
H         9.40833689963831    4.10723090107316   -3.37050162348862
H         9.36047531127411    2.64105417721560   -2.40274560521046
C        19.45909663980217    3.07747326746620    1.26710955816457
H        20.27915410362743    3.66175669954898    1.65006730336821
C        19.50165400915671    1.67876331650030    1.29322168779411
H        20.36248006574716    1.16934094953556    1.69658413943717
C        18.43490852921507    0.97205052787885    0.80121761212008
H        18.40154055088649   -0.10425548494453    0.79011315774980

