61
CSD_code = ZOFJEJ | q = 0 | S = 0 | Stoichiometry = C27H26O3P2PtS2 | MND = 4
Pt       -0.20244589756434   -1.58841741324673   -2.75971430577132
S        -2.07340171586777   -2.01532846910447   -1.45464266114037
S        -1.94540715307306   -1.77680525621410   -4.29651078629755
P         1.32965736973751   -1.32605147470185   -4.44553654002321
P         1.21932847039486   -1.21705501380205   -0.98326272345714
O        -4.19826501496050   -2.29309150672797   -3.00947517347871
O         2.84451733636029   -1.05524010123912   -3.92939215371870
O         2.39021044630740   -2.23774112606336   -0.55904497733184
C        -3.02543987873496   -2.08191536124404   -2.93345632487627
C         3.98825756284096   -1.07671655904809   -4.77585883683330
C         3.01453826872429   -3.10034667631187   -1.49595629935524
C         1.42159813070587   -2.88928018586228   -5.38322194650922
C         0.85570700760824   -4.01316006946961   -4.79254741825602
C         0.90130884030738   -5.23653191392987   -5.43465426778551
C         1.51917137729893   -5.34122694566577   -6.67063819682713
C         2.08097083547016   -4.22293455071892   -7.26577924392454
C         2.03072900311780   -2.99571479878239   -6.62822823678478
C         1.04730557950287   -0.09084830084280   -5.74692158999015
C         1.67171160013555    1.15098182608005   -5.68164777756185
C         1.38926433231092    2.11607811966850   -6.63136122392342
C         0.46940326865429    1.85425580143211   -7.63389579222744
C        -0.17381735223061    0.62736387304664   -7.68402494959936
C         0.11017965248150   -0.34522716073008   -6.74357134439563
C         2.04419212993819    0.37326346802111   -1.31594397068256
C         3.27553633546699    0.69990720059325   -0.76625173722619
C         3.84979342410268    1.92684485512157   -1.04838941868567
C         3.18939006283566    2.83231909341093   -1.86365487858850
C         1.95461470327176    2.51117176529083   -2.40615290798056
C         1.38684589393343    1.27897059939031   -2.13916612579526
C         0.49292558009387   -0.91142944284123    0.64525641132719
C        -0.46819114583326    0.09120033210999    0.72577891575728
C        -1.10287959331875    0.34467502729544    1.92575701520647
C        -0.78341054106065   -0.40472560457002    3.04770424892931
C         0.16933210859285   -1.40641211486895    2.96647318774580
C         0.80700636052590   -1.66676796396915    1.76599921987469
H         4.80888063810259   -0.66318346102930   -4.18942992197301
H         3.83883034832328   -0.46752585649916   -5.66894320328547
H         4.22867120057718   -2.09971526738602   -5.07327577527896
H         3.31850485465646   -3.99619490012228   -0.95319428262534
H         3.89081148450952   -2.61766836558429   -1.93217761149035
H         2.32227654592815   -3.37276234620165   -2.29939484769054
H         0.35245874909164   -3.90665718484804   -3.83145061131214
H         0.44999406997005   -6.10467937585956   -4.97860363111807
H         1.55418440189369   -6.29420485145559   -7.17715588402179
H         2.55195792438388   -4.30537635410597   -8.23434807485079
H         2.44597635570681   -2.11843271281981   -7.10570939069698
H         2.36777453867066    1.35771654258421   -4.87993799719932
H         1.88149003007481    3.07670667733977   -6.58479183677233
H         0.24583070144771    2.61120902386523   -8.37092766049929
H        -0.90344981361205    0.43044597243587   -8.45495605824816
H        -0.39847976397426   -1.29773283974182   -6.76457947083069
H         3.77602230156549   -0.01090627053655   -0.12429624517395
H         4.81237589265064    2.18176763312699   -0.62905464480780
H         3.63915641825131    3.79077773594262   -2.07811185012174
H         1.44035505454764    3.21860730825186   -3.04037388947694
H         0.42674120401020    1.00215885929244   -2.57306669211676
H        -0.72122333589014    0.65672950705838   -0.16119851507404
H        -1.85393368978547    1.11821760434629    1.98704720465303
H        -1.28493827159999   -0.21232445695491    3.98465107822926
H         0.41076576868163   -1.99422062317729    3.84025112591647
H         1.54202900388340   -2.45341594951572    1.69346149600217

