33
CSD_code = ZOFKIO | q = 0 | S = 0 | Stoichiometry = C8H18Cl3O3V | MND = 6
V         1.63362945392837    2.15230570740725    1.66254442564189
Cl        1.22900847535971   -0.01402743467959    1.28905641540870
Cl        1.13019835798729    4.13063355649441    1.31363542506895
Cl        3.48501690578320    1.94954539921956    2.82345393348705
O         0.61445193307520    2.09833405903756    3.29069233776797
O         2.73861709768524    2.15745547273917    0.01155593636430
O        -0.79891041635075    1.96486793212148    0.40116326381331
C        -0.71308799893086    1.59269198871479    3.41310563322825
C        -1.08162052284714    1.73092640599860    4.88639169956160
C        -0.29106729841431    2.97596410261062    5.27986278042365
C         0.99424944006032    2.78156374735323    4.48284022976647
C         2.25447038115756    1.81358340631992   -1.27638425467418
C         3.49149808639401    1.79932551099314   -2.16586579484678
C         4.26237318754544    2.99425979237899   -1.60811216365425
C         3.93828844154073    2.92449138670855   -0.11404756017687
H        -0.71185084206072    0.55666676381780    3.05726744362133
H        -1.36789673471611    2.19612706522271    2.77049531539413
H        -0.73057646101600    0.86592731183646    5.45105603948306
H        -2.15323159581472    1.83955350811414    5.03445793030607
H        -0.81051662173202    3.87474646071525    4.94444109113259
H        -0.10742514214612    3.04886289906429    6.34906041988604
H         1.47633217379021    3.72249376742459    4.19569399041859
H         1.71790210969370    2.15708639649395    5.02542345687649
H         1.54159424718925    2.58453782160001   -1.61229507346416
H         1.75470987361702    0.84302551035917   -1.19489311221353
H         3.25181191947969    1.89841727424112   -3.22176567958770
H         4.05137419609235    0.87642693043030   -2.00941499235344
H         5.33141911295635    2.93484797680094   -1.79770937367111
H         3.88126547902447    3.92139686872460   -2.03806245627291
H         4.71937512644256    2.40892181553669    0.45682579565568
H         3.76460038196922    3.91250438319252    0.33006242658869
H        -0.80637388781584    2.18967919676897   -0.53248574640888
H        -0.49672885892039    1.04365701620001    0.47305021745383

