92
CSD_code = ZOFREU | q = 0 | S = 0 | Stoichiometry = C45H40BrN5Pd | MND = 4
Pd        1.35194314229277    5.19839582522430    3.46599477986916
Br       -0.73781155774329    5.06044799505721    2.26985956885789
N         0.63725921612231    6.56109691200104    4.77704043031205
N         2.39581858847406    8.13073485511585    4.41527820945703
N         3.23262754466134    5.88344150711089    4.03572577322442
N         2.00401563116027    2.58100781885223    2.21465865918740
N         2.86034162146343    4.27953755160878    1.12215014454522
C        -0.54153609496079    6.62159177931822    5.39000718394521
C        -0.82936395115658    7.96169688222967    5.77050297709112
H        -1.71855171644925    8.28043431354458    6.27878065759215
C         0.22374547491235    8.74546571766083    5.35680338321887
C         1.16811091805241    7.82812018770875    4.75108360201780
C         3.34030301489574    7.26172225456415    4.12105087328392
C         4.71064475034045    7.64128173511166    3.90713341252567
C         5.39128934703536    6.46097198083329    3.68321033153717
H         6.44711578294087    6.33310508514414    3.53727726733780
C         4.45434389452872    5.40686730296771    3.77816532488886
C        -1.31586462428351    5.41757238444908    5.63112831123366
C        -0.66134188557419    4.17979677145117    5.68801783301653
H         0.43515722076300    4.14171715352601    5.62243237231401
C        -1.38280978584027    3.01813715896658    5.88313460467518
H        -0.87180186113711    2.06685809694031    5.93108001970692
C        -2.76081671028445    3.07068861336276    6.02408035790283
H        -3.32342018397274    2.16049336629749    6.16943619183270
C        -3.41423163126500    4.29150714891738    5.98038783661064
H        -4.48793625482907    4.33180131072692    6.08872347792494
C        -2.70056974124477    5.45849364785905    5.78975206884157
H        -3.21453274654067    6.40559902411592    5.73090696823525
C         0.41889210853190   10.17055037573180    5.52103656991452
C        -0.23646224141216   10.86550577031156    6.54050894809026
H        -0.88159824450175   10.32980773984677    7.22114737287134
C        -0.04774717506400   12.22406734870931    6.69781544716061
H        -0.55768919792949   12.74868866576902    7.49320719293180
C         0.79642484673439   12.91517541701651    5.84278971560934
H         0.94317287155734   13.97800128026730    5.96955398972034
C         1.44879821637061   12.23693038196062    4.82597063771742
H         2.10540869354483   12.77076985898115    4.15403724817954
C         1.26208530412394   10.87840046192337    4.66148581351954
H         1.76544549620395   10.35293882629380    3.86594476828355
C         5.24608414402798    8.98821407208355    3.93197248933929
C         4.66905835175980    9.98369618707904    4.72180701226980
H         3.81119453383193    9.74331713377879    5.32883253204064
C         5.19238382272305   11.26196493857423    4.72990643472472
H         4.73323252718118   12.02119598130484    5.34658541943533
C         6.30102567750894   11.57042013773623    3.95844173883443
H         6.70954524715022   12.57046135056945    3.96738103534297
C         6.88590432125909   10.58823831207258    3.17506739262482
H         7.75006595912938   10.82337493413671    2.57000830670353
C         6.36602428892786    9.30909197715127    3.16148185445660
H         6.81610422601407    8.55199346814932    2.53561443574979
C         4.77656140053427    3.98964655152665    3.69269273754879
C         5.69931460384682    3.52576526103963    2.75443276730567
H         6.13875565383035    4.21590036028852    2.04941261480764
C         6.04371114325820    2.18939570743578    2.71082124925730
H         6.74041174078299    1.83818256053258    1.96402512531180
C         5.51123591918722    1.30525710275260    3.63403864302406
H         5.80341568314116    0.26587333694442    3.61977611525855
C         4.61170772828834    1.76026412721761    4.58395635192285
H         4.22928200708882    1.07395560988059    5.32563868397067
C         4.21903876829234    3.08559801850949    4.59633258748901
H         3.50931007868594    3.44876713167031    5.33087307282456
C         2.10006006275856    3.92504958027064    2.17821843688827
C         2.76254564178748    2.04788229577524    1.19155863394817
C         3.31122641704260    3.13944687615275    0.48752358172476
C         4.14124979611953    2.93364178788749   -0.60425768450744
H         4.56623344967324    3.75244369956474   -1.16012321126850
C         4.41888209958433    1.63021285707227   -0.96703642864831
H         5.06629315646842    1.44350344467206   -1.81012774211877
C         3.88130592988420    0.55364732373545   -0.26946002296684
H         4.12102699479746   -0.45117428955104   -0.58175104783298
C         3.04522569768530    0.74399355215594    0.81318873390262
H         2.63537636898627   -0.10307898281579    1.33775528515859
C         0.96706954809944    1.90603644397572    2.98770657147705
H         0.49291091799919    2.69763663948959    3.59415100730179
C         1.50685501367888    0.83995833469123    3.93414375182294
H         2.16454919448790    0.14292342394503    3.42428660812310
H         0.67255467521439    0.28318412389930    4.35314469387861
H         2.05663095921319    1.30228143517088    4.74706329096952
C        -0.08695411157527    1.34862822150597    2.03151081681098
H        -0.47619533703666    2.14683770870465    1.40367830313489
H        -0.91484900904961    0.93810618116744    2.60217474388481
H         0.32647668555919    0.56790832904271    1.39864994826447
C         2.86697099717948    5.64858864101516    0.61299217218766
H         2.38029765033469    6.26535670616671    1.39852385857558
C         4.26741852912839    6.20030639115350    0.37191791786437
H         4.88957583958304    6.06239041988778    1.25218813983746
H         4.19733657360836    7.26687256466274    0.17249600778011
H         4.74524481363857    5.72634183165591   -0.48049210567634
C         1.99906635878683    5.71255892829191   -0.64426197676921
H         2.40438260491379    5.07642615339652   -1.42793375485193
H         1.95637806675129    6.73483444489553   -1.00946153901641
H         0.98582850762975    5.38636016447278   -0.41576591535675

