118
CSD_code = ZOFVUO | q = 0 | S = 0 | Stoichiometry = C38H63N4O9P3Ti | MND = 6
Ti        8.81427143255999    8.89807952356203    4.48105380668532
P         9.72217107594831   10.00233961935341    2.26313126016778
P         9.88186655231171    8.63332582500987    7.27820465213616
P         6.67192233658590   10.43436704641474    4.38071516463327
O         8.03003795493075   11.06463781325225    4.34152876430792
O         8.37895679877503    9.34741384371550    2.29138978455469
O        10.69190152421142    9.33374368204508    1.15618463779297
O         8.86604798654188    9.20353927189964    6.26650356350009
O        11.00973433475761    8.11903786449087    6.24861656001143
O         9.65617717877224   11.50071375837184    1.67071840558568
O         5.81788627272491   11.11560961714746    5.58803381106611
O        10.60379848408263    9.89846365841810    7.99577967315983
O         5.70487984054555   10.79722206357102    3.15369455210782
N        10.44057646343492    9.75617268264197    3.67325393705695
N         9.54816967710421    7.43780821236795    8.23622303005705
N         6.82548217906532    8.84319830710453    4.49785893463114
N         9.05091128075447    7.10552070479643    4.23172142113423
C        12.76549090601613    9.10762822076399    3.83647021260684
C         5.79186278003560    7.89142563772339    4.53839798091144
C        11.78043828693973   10.10545738738044    3.90377840134394
C         6.52871760049829   11.67451543488575    6.68785983679322
H         6.95662741973445   12.63476452853510    6.37615301546016
H         7.35253692901848   11.00827684401254    6.96250783400778
C        12.14827858081020   11.42438104000233    4.19905867229062
C        14.08157174437468    9.42682275017346    4.13265404626619
H        14.83767998494622    8.65474379259278    4.08628374756217
C        13.47739154084319   11.71036419918900    4.48607321754255
H        13.75593692028552   12.72847698843889    4.72120172083431
C         8.65570534061488    7.22152756983818    9.25599552264238
C        12.19655191826472    7.55650939715891    6.81218952401161
H        12.25958553046456    7.84530766499283    7.86609222555000
H        13.03876900434347    7.99060974839835    6.26417402700555
C         7.05546004300962    7.83657657386091   10.95747675029954
H         6.50459294700359    8.60861372338212   11.47832383372176
C         5.38200740204747    7.36957116057337    5.77798805456145
C        11.13971115689219   12.53578790951163    4.17962515730793
H        11.17826850492515   13.04382690451201    3.21495798000740
H        11.35934314904674   13.26743858461236    4.95645256687165
H        10.13076949655372   12.14932856099929    4.31783479927052
C         8.48008632002781    5.87317255328393    9.63397405634089
C        12.38139655630857    7.72572663520128    3.40721796816746
H        11.49170530047825    7.40773647991649    3.95497245167020
H        13.20098050548882    7.02815980802807    3.56934568161553
H        12.13303331203436    7.73899287505152    2.34565777548798
C         5.19686584880750    7.40605379696179    3.36300114217646
C        14.44108162939949   10.72041049979817    4.46976208944084
H        15.46901115912065   10.95717240043452    4.70202274720472
C         7.93408713292052    8.20615807956031    9.95032446988939
C         4.41102964840052    6.37985256425271    5.82433030528832
H         4.10971138344597    5.98609885501738    6.78452359659551
C         5.96851047743512    7.89380185573874    7.05225862852133
H         7.02540565977692    8.12154289498907    6.91433238738481
H         5.85891093494249    7.17511651186888    7.86178924376082
H         5.45708529039127    8.81325903864835    7.33869779297486
C         7.59917695322252    5.54131615513295   10.64600767040751
H         7.47711632295526    4.50171778714730   10.91811367085714
C        10.25392689638410    9.30367855451474   -0.19784178642968
H        10.57693547744185   10.22678333651549   -0.69084670407893
H         9.15913481602041    9.25293614486154   -0.22152406981884
C         6.87426416047517    6.51404507815525   11.31145507500449
H         6.18429764730930    6.24515393519778   12.09754558882400
C         9.26167907657317    4.79736169543401    8.94174482108000
H         9.08904377052277    4.83649590526919    7.86808355798754
H         8.97622070669128    3.81595106841681    9.31395025382864
H        10.32626752932994    4.94430344638333    9.11841028338982
C         8.45046817021979   12.24856691249206    1.60770627951507
H         8.49650118658180   13.03126552386690    2.37263568620607
H         7.61161239356528   11.58357001360931    1.82578284383339
C        12.18495800998658    6.04291139127448    6.69221692240125
H        12.10509277387824    5.75047642434277    5.64931296781255
H        11.32974786938093    5.65543915454398    7.23483772670945
H        13.10015335128131    5.63214848224463    7.11130993376194
C        10.86012120651053    8.08908446075455   -0.88152242828313
H        10.56691310150805    8.06909418061376   -1.92769486245663
H        10.51750051659556    7.17829959772466   -0.39711809360166
H        11.94392293996954    8.13252042119316   -0.81523499784787
C         8.67382549992687    6.11906930208504    5.22111758320633
H         8.77305094988762    6.54044687840119    6.22329656501828
H         9.32722771931065    5.23561123358107    5.14698399453171
H         7.63398638991993    5.78379655105412    5.06946645557273
C         5.57962308358751    7.93807468373861    2.01588695328795
H         4.94298062789240    8.78463607088714    1.75953442566999
H         5.45370814549803    7.17122115843751    1.25258002195494
H         6.60812269380076    8.28837694190699    2.02485005549181
C        10.85726195694532   11.09810540075291    7.26891021778603
H        10.25360194889784   11.09539722729429    6.35378390856206
H        11.91839005205481   11.11545436610841    6.99638592263359
C         8.10678962750307    9.65759316816616    9.63166629818658
H         9.09342628902265    9.99723811703623    9.94644427017342
H         7.35030092524457   10.25376558698933   10.13860040447207
H         8.02543491402183    9.82224382100793    8.55778526757889
C         3.82925826731419    5.89911312721420    4.66607552394080
H         3.07425898963425    5.12832064886406    4.71257162101794
C         4.22398179919316    6.41816609689418    3.44787770387132
H         3.77186100235615    6.05107385927642    2.53671994501310
C         8.31643726698860   12.86127669917850    0.22157437515166
H         8.22531550282036   12.07945670827862   -0.52853207516166
H         9.19526433855049   13.45929531247775   -0.00671283228604
H         7.43574951169099   13.49719005177364    0.18320417352611
C        10.50678215256836   12.29460380862429    8.14067729020057
H        10.74528856198437   13.21438505984131    7.61350320258102
H        11.07473735920663   12.25874065060757    9.06720142974001
H         9.44670839541716   12.28724504557437    8.38156685943282
C         5.56796569569740   11.87465867575058    7.84727586338843
H         4.73468597659169   12.49923479700229    7.53490330949531
H         6.08544643808961   12.35688817703573    8.67228992146381
H         5.17636944872937   10.91937720229566    8.18562310138076
C         9.08704320086562    6.49691029535896    2.91874629694164
H         8.08051696611905    6.16151011257128    2.61698370085592
H         9.74777657584913    5.61475795702243    2.92159302155351
H         9.46022175638218    7.21038426861283    2.18243726324678
C         5.12574342817757   12.09325465902986    3.02808953055831
H         5.89924721760808   12.85797999686027    3.15897279316783
H         4.37404996404449   12.22088974609770    3.81273767845334
C         4.49007495329028   12.19854070819086    1.65173411268704
H         3.71466584475374   11.44498260909724    1.54556673938903
H         5.23857526795277   12.03624569708576    0.88100292868566
H         4.04889869944440   13.18336488778377    1.52282241647598

