75
CSD_code = ZOGBUS | q = 0 | S = 0 | Stoichiometry = C36H22BF15Zr | MND = 12
Zr       -0.14273068262748    0.39132611825656    5.02748725112845
C        -1.41801974510296    0.61827481513123    3.25496039295869
C        -1.00791020025076    1.22327641414323    2.13261199360967
C         0.22302595489514    2.05775566198208    2.10862516365269
C         0.23906160806358    3.20525089383759    2.79043588156540
H        -0.64758013608285    3.47888918147818    3.35265511860572
C        -2.74545790021392   -0.13260433296239    3.20156836236278
H        -3.56802303971097    0.57659665117739    3.07117811666139
H        -2.93514260427993   -0.71437022884030    4.11038002985047
H        -2.78417720215839   -0.81281753971580    2.34615392888971
C        -1.75825123612801    1.19284054802017    0.81669311921118
H        -1.24910960897730    1.79028673203330    0.06592044769445
H        -2.76383886469026    1.59086731892348    0.94891492366315
H        -1.85208682615878    0.17138970184053    0.44585111802061
C         1.32968457948540    1.62085186670526    1.18192373904278
H         1.52544965649322    2.38071235684269    0.42646673224929
H         1.05888918435890    0.69605671280021    0.67857117398034
H         2.25554727344343    1.45652264572189    1.73133496037762
C         1.31330175359261    4.24666382136428    2.74922882526790
H         1.44474931543269    4.70667264183669    3.72746401026572
H         1.01946656915600    5.03826180347188    2.05804022539346
H         2.26031593091799    3.84141898494977    2.40460399569056
C        -0.24809791810900    1.98008562057798    6.88716870858708
C        -0.74532964737896    0.72760651555329    7.35214493565557
H        -0.36361920338677    0.16771679831933    8.19872979998713
C        -1.96955267363722    0.44381991961121    6.69777062965364
H        -2.64725189210018   -0.36539232275271    6.94847529743602
C        -2.25651016510859    1.52786715924169    5.83860262823271
H        -3.18387723527606    1.69199075053541    5.30815912726261
C        -1.19398408391119    2.45318265381241    5.94065336104997
H        -1.18869567312670    3.44539587286992    5.50859253608219
C         0.73798948443372   -1.77492909673781    5.79577766688979
H         0.91215360378306   -2.03823516255987    6.83223437274463
C         1.70602808944999   -1.26852034113200    4.89670008880681
H         2.74213281479917   -1.05772825348640    5.12981044044435
C         1.14426993972692   -1.25900049221038    3.60520668545360
H         1.67049790423585   -1.02900448622388    2.68806681990370
C        -0.15713343583704   -1.79846048077224    3.69529451297958
H        -0.78030693462826   -2.06911414793668    2.85587451863529
C        -0.42143740907412   -2.09308056276280    5.05059670279142
H        -1.28471711917069   -2.63185729980244    5.42504112245732
B         0.92693153833815    2.89892700005323    7.51720573760362
C         1.73806265285606    2.06817662330838    8.67009209333954
C         2.21331950746207    0.82134647904258    8.29419381965248
F         1.96235527327043    0.40918565245125    7.00144223779640
C         2.92449204749296   -0.03515821181816    9.11706865039816
F         3.32577346542092   -1.23125531908987    8.66735670077454
C         3.20828726770065    0.37751249592098   10.41456156707966
F         3.88843027206235   -0.41770775777507   11.24226565086738
C         2.78417741007289    1.63602881882098   10.82931348538048
F         3.07335961179274    2.04989876481732   12.06389181387119
C         2.06935139843227    2.46247140020445    9.96203686091936
F         1.72339398624315    3.66695052341187   10.41674469932685
C         2.18430408230523    3.26102535191253    6.51463945102442
C         2.48382061290494    2.61403488027039    5.33263107184218
F         1.57812918301187    1.68952142533429    4.77363477447295
C         3.66208012957083    2.76449916681472    4.61359852270623
F         3.85343733122055    2.02339120917307    3.51515764501911
C         4.61540764900316    3.66686925390026    5.05894263511666
F         5.75396631240481    3.84400948547901    4.39024920081448
C         4.35814643982973    4.37207452872567    6.23466189181192
F         5.26307646121899    5.23592276910751    6.69192031100449
C         3.18121026811096    4.14736014535949    6.93999289974475
F         3.02160342173276    4.80799126779154    8.08721025401604
C         0.14327461248987    4.21401411678233    8.05541538823424
C        -0.70460715644703    4.11875667930221    9.15535129574308
F        -0.81755130433859    2.94353794501840    9.79428482687337
C        -1.46434493858015    5.18301652644473    9.62123923861999
F        -2.25630862801040    5.03777839172500   10.68957023845425
C        -1.41302705306637    6.40447062585837    8.95874152066738
F        -2.13930807624073    7.44087536765479    9.38900979047789
C        -0.61738607218502    6.52478495792459    7.82725571367745
F        -0.58420535728739    7.67897859068834    7.14833868884842
C         0.13018931282068    5.43535738248607    7.39637140224323
F         0.84233611325349    5.58968804978935    6.25824045639649

