42
CSD_code = ZOGCON | q = 0 | S = 0 | Stoichiometry = C23H18Mo | MND = 10
Mo        6.90791799562596    8.94265626960478    4.35315557995958
C         5.86852475492749   10.91632791946971    3.85247142733243
C         6.13876361095177   11.00510905892567    5.24940155584687
C         5.39596206805913   10.00817650668276    5.89973471400056
C         4.69670611929745    9.26282879944757    4.93036626416843
C         4.95792744923064    9.83939876511645    3.65698738508265
C         7.78364624642794    7.83389427074978    2.81801795596874
C         6.52628771975513    7.46477865210250    3.00080101977426
C         5.57858842019446    6.50710425137460    2.37622271582322
C         8.88583994610725    7.37527293298471    2.00588527941739
C         9.71824140591679    8.27664823174115    1.34160592834272
C        10.74686687849834    7.81808581273962    0.54247562702248
C        10.97223593758052    6.45759841895872    0.40406748445387
C        10.16010407558356    5.55429002580941    1.07044299861142
C         9.12103799548151    6.00507298123777    1.86121340840714
C         7.44306157663119    8.15094425231034    6.22578853012806
C         8.61791388881894    8.40767948333164    5.64284965766361
C         9.13400123349075    8.81372781346023    4.53018802996280
C         7.05192083542904    7.60564610240964    7.48233240308487
C         7.94338851991091    7.61922946987131    8.56713493772880
C         7.55696418587912    7.12977147584099    9.79656198849598
C         6.28439650789786    6.60651138516696    9.97444105748471
C         5.39840727707875    6.57285942467734    8.90788158419566
C         5.77192049914741    7.06814088575995    7.67598843202311
H         6.11463413391147   11.67715242806114    3.11646566498592
H         6.68191522363883   11.81013769180042    5.73367277845936
H         5.31051976910346    9.88672314662977    6.97081191309682
H         3.94613163562838    8.51633120243160    5.13258570675903
H         4.38980283378110    9.65728924397660    2.75039575084511
H         4.56864201758308    6.91607351229102    2.33833687964619
H         5.54301535428844    5.59027178516122    2.96677430202137
H         5.89849410218895    6.25197850003522    1.36404205684826
H         9.54209616999994    9.33488690657879    1.46168014416368
H        11.38330304790059    8.52355837253539    0.02785062489551
H        11.78160488450847    6.10185708668936   -0.21665533838442
H        10.33743556778696    4.49278503748053    0.97045070755205
H         8.49228126754836    5.30346107556913    2.39312594393044
H         8.93414710814364    8.02783951240549    8.42220677736356
H         8.25131479876417    7.15099509240681   10.62410081226421
H         5.98667757923848    6.22137601774344   10.93830334650820
H         4.41012752817778    6.15654023500548    9.04170713591192
H         5.08713182988970    7.02678996342621    6.84092882814851

