45
CSD_code = ZOGDAC | q = 0 | S = 0 | Stoichiometry = C14H16N6NiO8 | MND = 6
Ni        4.25434107013846    3.52251675133594    7.04813974070374
C         4.58723668280324    0.86724744714716    5.97106002065286
N         4.58906598927191    2.02656196781726    5.42043671373489
O         5.08279144111954    2.14442351870993    4.16370273355997
H         4.97001406343966    3.10806017085826    3.96110461529253
C         5.12443707051594   -0.37029330009201    5.33071594807199
H         4.33756930525757   -1.11067931428334    5.19405005251842
H         5.90900410394998   -0.79938582283833    5.95079095947212
H         5.54425422281707   -0.11348477438524    4.36178280494178
N         3.63689773363295    2.03197038742444    7.83792004346727
C         3.99429603832814    0.84517601104866    7.30605104326599
C         3.80176688130107   -0.34356838857981    8.01013587720262
H         4.11487641293873   -1.27802938819378    7.57487840592981
C         3.22568443802590   -0.31149030372009    9.26562248427021
H         3.08502762771772   -1.22136026654090    9.82830897695027
C         2.83682037266184    0.91366974453330    9.78422677646450
H         2.37885617317488    0.99164023295344   10.75651059611495
C         3.06549544873975    2.05590341138197    9.03577001676566
H         2.79016979510729    3.02381244725238    9.42808274968006
C         2.15562976405607    5.72566871939980    7.68309227084619
N         3.13894457079030    5.12280093027032    8.23437983018036
O         3.61440797862710    5.60797978142385    9.41647592535169
H         4.44617296363649    5.10209912686419    9.56442098607399
C         1.50239557943607    6.94536473168677    8.24883522845215
H         1.90219799705731    7.13558142543022    9.24141497002689
H         0.42397590877772    6.81481552689124    8.31079566474086
H         1.71672596832223    7.80752063790242    7.61896365763003
N         2.22635991359134    3.97577925428722    6.04888202203343
C         1.69415986925052    5.15220291764916    6.41139923062538
C         0.75980111571159    5.80927978458508    5.61114886261065
H         0.35805387330212    6.76305689866205    5.91045701920274
C         0.37221879686211    5.23323750549114    4.41449797102448
H        -0.33477949012196    5.73474317659737    3.77086251180045
C         0.90838462992599    4.00650563411609    4.06154738431916
H         0.63212079721984    3.51807452247123    3.14142439130570
C         1.83107811692039    3.42078561701498    4.91488989170723
H         2.27271647566113    2.46548842617015    4.67019222307218
N         4.97492171382912    5.46672621573891    5.18926924819202
O         5.03169082559068    5.06715460523042    6.38796147751648
O         5.38718745143831    6.56328110815296    4.92524272063367
O         4.47816121807268    4.71609050442118    4.35107996838476
N         6.49319963793630    3.19108998705198    8.59089311672900
O         6.35877941684812    2.76516214840819    7.42836789475972
O         7.51312408187469    3.04417917130133    9.20742723613207
O         5.49376595444333    3.73994111095415    9.10598773758755

