68
CSD_code = ZOGJAG | q = 1 | S = 0 | Stoichiometry = C21H39BrMoO3P3(1+) | MND = 7
Mo        7.13296813289911    9.32840062400422    5.85958503742723
Br        4.81215213937344    9.75492579795488    7.20059596537770
P         5.62310101478709    7.64047093376006    4.81335145656178
P         6.01830824646570   11.16625844321601    4.58100785766299
P         8.81412958724158    8.98567358380527    4.10384719308710
O         8.47464214180951    6.73059906213842    6.86988568255284
O         9.19522911224173   11.42602045006493    6.81746190079092
O         7.74958462168804    9.25295745339999    8.89092426174722
C         7.98004728205962    7.68976861695830    6.48433919234484
C         8.40168587665179   10.69794265960253    6.42794978440103
C         7.47459886816219    9.28000547812015    7.78097994414465
C         4.32406994402686    8.16422645672020    3.60829038958140
C         4.60142947428635    9.46038194840373    2.84977216417536
C         4.45762667856639   10.70406219458419    3.72711884629266
C         6.96488519484626   11.93787088081808    3.18623258161151
C         8.44681201359661   11.58030698650137    3.11778678372592
C         8.69061147110214   10.13628339430911    2.67686144443346
C         8.82055247945144    7.34542054863601    3.28067394875886
C         7.46103711779745    6.86116748007050    2.77518605274442
C         6.53194484352759    6.34258612742031    3.87309808027739
C         4.57708885734956    6.61503542809721    5.96568392179513
C         5.35016838519512    6.13142373345143    7.18859136707715
C         3.89932120610642    5.42984622705205    5.27844317256566
C         5.40578830240867   12.63416673960638    5.56267929800065
C         5.00009825111385   13.84002080221303    4.71542756672021
C         6.41138210931644   13.06477321401639    6.62551186669601
C        10.58849091490206    9.21837723069470    4.61186644171628
C        10.91514195812442    8.55779385642968    5.94928282412617
C        11.59120668361797    8.73447643315695    3.56291364329497
H         4.19794481287087    7.34718298838573    2.89048660526021
H         3.39071699105679    8.27461669950022    4.17068893903599
H         3.88803598278357    9.52459242280669    2.02429839067995
H         5.60475258504348    9.43158415732927    2.40756247903764
H         3.68683632424139   10.54908632243491    4.48826113942982
H         4.15866824719314   11.55938285624074    3.11351496098173
H         6.47977653549995   11.66144324073729    2.24463462599229
H         6.87431947413859   13.02038537816724    3.29413163636770
H         8.92379695432959   12.25395948685338    2.40173765904718
H         8.91812358708229   11.76095934020118    4.09009275894930
H         9.62680031506521   10.06465971802285    2.11549736472601
H         7.88758479314400    9.79873800384432    2.01395703383525
H         9.51046894879333    7.42179526215949    2.43342128226011
H         9.23202780161431    6.61989395572623    3.99095063756625
H         7.64477575410843    6.04147695872522    2.07528365523930
H         6.96175781235375    7.65342923678840    2.20959479893287
H         7.10212240395455    5.74592766438181    4.59293590138869
H         5.78061945061661    5.69015691563237    3.41855032033267
H         3.79833438872321    7.31053952108812    6.30676182113270
H         5.75240294053547    6.96136300897836    7.77078471546054
H         6.16096355025799    5.45963046706223    6.91108713490474
H         4.67489250743753    5.58137976296806    7.84043930220018
H         3.39585823707765    5.71328772525742    4.35748823918396
H         3.14591732876332    5.02698698321983    5.95190222250348
H         4.60837092529496    4.63230868281397    5.06956005917622
H         4.50790465306557   12.25370692761920    6.06558168889306
H         4.43793838227814   13.56316074043505    3.82686205917688
H         5.86270072919425   14.43381224700986    4.41994588684257
H         4.36233977828832   14.48227200663108    5.31866528476086
H         6.57503417289155   12.27911377146044    7.36436880159160
H         6.02494061940152   13.93130224471499    7.15764589933927
H         7.36439112589456   13.34632141058342    6.17736015989162
H        10.69372794058575   10.30778248752058    4.72339854321500
H        10.79902790992803    7.47690101448303    5.89266102261841
H        10.29897775197508    8.93843129914881    6.76356651203432
H        11.95291075729987    8.76344723052173    6.20386105841589
H        12.58215976814117    9.08959284625305    3.83714059142405
H        11.37902627437484    9.10916604048370    2.56424579655987
H        11.62954857598473    7.64838018860239    3.53132434192077

