80
CSD_code = ZOGKIP | q = 0 | S = 0 | Stoichiometry = C41H35BrOsP2 | MND = 8
Os        2.02272677275694    3.13540458287802    0.84176609996942
Br        3.61705840324469    5.05667409211278    0.89062224160043
C         0.26985558997731    2.07374347059813   -0.19097770445858
C         0.10531638477088    3.46645981360810   -0.44577755609342
C         1.20276237882322    3.90015206300756   -1.20969942958978
C         2.06436348111313    2.79153554685391   -1.42751777616210
C         1.46629595400509    1.65926219610280   -0.82485568565826
P         1.01381342240913    3.72224769565540    2.80267504406736
C        -0.29739704189156    2.51845786621860    3.20396945006263
C         0.05341059640055    1.31866741727478    3.81792030532421
C        -0.89485202951674    0.33794642590823    4.03756878643101
C        -2.20257012283250    0.53386143853991    3.62283010069900
C        -2.55402247375801    1.71212245068267    2.98454359261373
C        -1.60773424737097    2.69857486376086    2.77231584382133
C         0.06312722781733    5.29306667910991    2.79305597190909
C         0.21081947112607    6.21694234910260    1.76779943747963
C        -0.50423267177556    7.40252741484787    1.78756185196650
C        -1.36866210922028    7.67341511990014    2.83301670198358
C        -1.51094763408364    6.76013071039037    3.86708405345994
C        -0.79637074352525    5.57879693702820    3.85211984251483
C         1.83250305318796    4.01009602034535    4.42102825361888
C         1.33607365952275    3.54538469315597    5.63476784114278
C         1.95998040202989    3.89483254206874    6.81913928800002
C         3.07117258850531    4.72058247233720    6.80913533857977
C         3.55906121796329    5.20001932004318    5.60548559389654
C         2.94469137570742    4.84812889842559    4.41878574800258
P         3.61404328414761    1.71587543917921    1.63863648146186
C         3.13930349127489    0.05313970577357    2.24653111112432
C         4.06852315676676   -0.75777818611078    2.89698917851789
C         3.71071137624260   -2.02311290714247    3.32070197017776
C         2.42823985951427   -2.49978872573667    3.09205271846428
C         1.50464907856482   -1.70490201930644    2.43681315176389
C         1.86011494963093   -0.43365782500679    2.01902701423323
C         4.79256203380452    1.24421445431079    0.30859244184665
C         4.96536940325747   -0.07679784766271   -0.09611608321302
C         5.81393834495481   -0.38401535033594   -1.14507854244039
C         6.49694739134737    0.61866699851123   -1.81127190633994
C         6.31084745926386    1.93784195925355   -1.43381056610868
C         5.45757362461141    2.25055224376662   -0.39168312792647
C         4.69593274781196    2.23960308297116    3.02194727175141
C         5.86847836705436    2.96125973664108    2.83312083285240
C         6.61100143378949    3.37609932697548    3.92498942232007
C         6.19685559924562    3.07358728703723    5.21014971012907
C         5.02464564923305    2.36176696280504    5.40603563794801
C         4.27265676329813    1.96013190049292    4.32035360234563
H        -0.48335523788370    1.42856332781483    0.24063946292173
H        -0.77302842945721    4.04975506480940   -0.20652593152179
H         1.33479826609410    4.88749636747847   -1.63008800434374
H         2.92215300412316    2.77798718626964   -2.08525678647251
H         1.81685715470601    0.63992838856317   -0.92058168410484
H         1.08011284037167    1.16235699462797    4.11975988374818
H        -0.61115202707592   -0.58272136740958    4.52674481213119
H        -2.94507062312377   -0.23245520602575    3.79030238964224
H        -3.57008494254898    1.86229956407010    2.64873880257330
H        -1.88789616471244    3.61675775015346    2.27440761554293
H         0.89356667882813    6.01925187202639    0.95424245159401
H        -0.38192673222298    8.11550764698976    0.98562636032434
H        -1.92872125418231    8.59691056227031    2.84834029655699
H        -2.17955942049850    6.97306059338833    4.68875378242274
H        -0.90378405117743    4.86898352886497    4.66092648171009
H         0.46238001619484    2.91006502721046    5.66576193479393
H         1.56883382912712    3.52392891249397    7.75611327006809
H         3.55042560233345    4.99254224459589    7.73825540437578
H         4.42015021294489    5.85053096756382    5.58645084073491
H         3.33082812691329    5.22732043200581    3.48555729661936
H         5.07199948592031   -0.39135917910095    3.06514003692678
H         4.43521807211253   -2.64353748451541    3.82795556779181
H         2.15333030740417   -3.49046534796982    3.42336036951251
H         0.50541276936039   -2.07155453472499    2.25077249201189
H         1.13651578318689    0.19440783940003    1.52062076767371
H         4.43590364755396   -0.87590672817426    0.40166111605846
H         5.93701140277511   -1.41504828203343   -1.44473508442647
H         7.15950607876413    0.37359184120079   -2.62834462975945
H         6.82306520380711    2.73102677846533   -1.95840440450357
H         5.29685681280763    3.28832468107128   -0.13996617705175
H         6.20739410211594    3.20108669005837    1.83816459324630
H         7.51920476504839    3.93822603590027    3.76698036353987
H         6.78321118090729    3.39275008980641    6.05901996082544
H         4.69155599970172    2.12533967487248    6.40588910627950
H         3.35355062079123    1.41232875142991    4.47717368846079

