52
CSD_code = ZOGKOX | q = 0 | S = 0 | Stoichiometry = C24H21N3O3Pd | MND = 4
C         7.74737441737242    0.63999981911321   10.48977849134330
H         8.29685463262754    0.44623037181863   11.40366706818883
C         8.32042338194539    1.30167202810196    9.36790105167448
C         9.59189579769864    2.03352960639799    9.53739915026449
C         9.73522301474604    2.91141843665909   10.60995630361397
H         8.91004424314512    3.05501089657865   11.29176764454435
C        10.91668272206205    3.60613304814028   10.78990876559336
H        11.01594647941674    4.28889475782431   11.62043059053194
C        11.97175578796365    3.42471464885932    9.91055002732172
H        12.89518617656544    3.96520157166159   10.05460439999421
C        11.84159708854288    2.54415099186486    8.84982383042653
H        12.66478563518134    2.39287776927677    8.16748902068096
C        10.65815953270922    1.85406304116100    8.66028757357235
H        10.56664844046910    1.15218994232317    7.84527142184994
C         7.81897491759352    2.11576483240952    7.12868892617103
H         8.59859661179949    2.86826658102392    7.33327204815234
C         8.21169209886021    1.26449511352171    5.91957195635968
H         9.10725854471510    0.69127568125841    6.14846922970816
H         8.41570380095994    1.88541880996135    5.05204978520042
H         7.40355953829438    0.56832742635661    5.69933842029862
C         6.46655535461079    2.80545282896003    6.94482832685065
C         5.77361780478557    3.22526668918024    8.09547675950659
H         6.27887725230651    3.25991371913323    9.06380995092603
C         4.47911087106878    3.72069593365343    7.99728856751569
H         3.95909474641502    4.03728202989153    8.89042321270867
C         3.86554993826876    3.82265727046430    6.75797699926529
H         2.85315976968961    4.19004621712248    6.68284834934020
C         4.56366170008018    3.46716623119151    5.61917043045013
H         4.09902711649840    3.56857879681741    4.64931790371189
C         5.84938498615983    2.95484456773119    5.71130907605078
H         6.35970462470878    2.66417909398922    4.80719272157479
C         2.99630825095492    0.14677056968525    8.10256110320087
H         1.92971274862297    0.12960939956011    8.29058109323905
C         3.57833116242417    0.08239389532074    6.81280506496441
C         2.74675836233407   -0.15437291880435    5.61571967672426
C         1.50804104126333   -0.79034479710083    5.67735132574069
H         1.13035797149559   -1.15250825117401    6.62062884083903
C         0.77246923318501   -0.98698112091846    4.52344597362078
H        -0.18414492280516   -1.48529669977268    4.57627639848106
C         1.25746949509131   -0.55032999543676    3.30082579605165
H         0.67548199078735   -0.70255155645080    2.40396351755402
C         2.49220955756278    0.07502313192436    3.22998657204897
H         2.87474061213796    0.40980210903333    2.27702119638766
C         3.23442211916762    0.26678954839362    4.37835120435661
H         4.19957467151213    0.74897469502746    4.34595742926691
N         6.48116264650108    0.28189676803216   10.38393498794511
N         7.63016472119311    1.23771478137743    8.26611120290458
N         3.83531228256949    0.34084483352045    9.11168730621067
O         5.85483254108892   -0.28888372818515   11.28557962448619
O         3.45112064449036    0.60089834219516   10.25977251732658
O         4.81224422955978    0.28785957970913    6.66982269624357
Pd        5.68472361361701    0.60567266160628    8.64844846901790

