70
CSD_code = ZOGWID | q = 0 | S = 0 | Stoichiometry = C29H35Cl2N3Ru | MND = 9
Ru        3.33253104077779    3.30218321307720    5.92011238434336
Cl        4.03331594331390    1.22954570661716    5.04193682758530
Cl        4.45419375330919    2.65174779328238    7.89052402672310
N         6.16113469177786    4.61161877514634    5.40458664386419
N         6.84896527644028    5.19168577783249    4.45057949582759
N         6.11971453147937    5.10172600634330    3.37531405023410
C         1.16861841859131    2.73277157256996    5.25897865486619
C         1.24540841405332    2.70719786272394    6.66907950210601
H         0.90734286081932    1.82968263273829    7.20916640734121
C         1.68401341889111    3.83631074538570    7.38042345993947
H         1.67631053526807    3.80686145929473    8.46451827811011
C         2.07643935935316    5.02360036232496    6.72340951702904
C         2.41970900456858    6.28718630289348    7.47734745955284
H         2.94490471238592    6.95697340888945    6.78422087308687
C         3.33521563743010    6.02012061539378    8.67299190838015
H         4.13821681046978    5.34036178242204    8.39110054790352
H         2.78336133690981    5.57018174194148    9.49439004506562
H         3.76730722928060    6.95224384052237    9.02931612071017
C         1.12448960149319    6.97612472536960    7.92297705320947
H         0.49497065644696    7.20774039807962    7.06539528450323
H         1.35416602311266    7.90217282176261    8.44469438466030
H         0.56393503287592    6.33111098483528    8.59664414683741
C         2.02297574412707    5.02263583299038    5.30709148807750
H         2.24219943008585    5.94267882813986    4.77076761162616
C         1.52412965289776    3.91721207716811    4.58573390860923
H         1.36907126258931    3.99505034169454    3.51739074149749
C         0.68350821082706    1.53951924373235    4.49812621883569
H         0.29410675057627    1.83003372056614    3.52434244039848
H        -0.08458809862563    1.00593231534558    5.05520591432386
H         1.52353409583541    0.85701562200272    4.33969895173078
C         4.95867001698958    4.12846469656702    4.99291408800677
C         6.79605240689803    4.54371230526864    6.70458019767341
H         6.23181427983714    3.83236697985096    7.31346430859920
H         6.73772472839464    5.53250973385227    7.16302213900402
C         8.23154510932420    4.10895679366740    6.54191388972098
C         9.26713573213359    5.04292944386443    6.54665312282300
C        10.57552101560885    4.60727097799891    6.38758268353264
H        11.37786402269391    5.33208983710882    6.40005337125157
C        10.87461747364551    3.26685851838572    6.20812537398038
C         9.82956611486113    2.35477358916318    6.18476866976097
H        10.04925303503426    1.30677478884651    6.03736910202934
C         8.51096264705626    2.75213280166014    6.34824609678418
C         7.42315059977695    1.72707510077745    6.32987204380461
H         7.82202610987204    0.74938111502498    6.07387444961587
H         6.63801016157950    1.97228384515764    5.61426797022027
H         6.94593171200662    1.65659550612126    7.30650293231907
C        12.28920563184706    2.79975771073345    6.03998681629074
H        12.98023405400050    3.63918865607866    6.03406876725631
H        12.39999972202514    2.24919164105820    5.10660687983942
H        12.56383176751197    2.13027281626519    6.85443638219951
C         8.99992097239383    6.51094067903840    6.71417498840073
H         9.92113179194495    7.07646645809693    6.59943044607431
H         8.59653163075187    6.72216916816237    7.70433229304107
H         8.28839825673981    6.85552351520946    5.96590760435901
C         4.95459494077037    4.46179889352872    3.62697982631938
C         3.96982817423454    4.23024815336664    2.56872082025395
C         3.58199673723538    2.93421656507137    2.23805195327383
H         3.99873237946430    2.10057441578774    2.78364464527513
C         2.65387201429793    2.72996457132734    1.23224078309947
H         2.35465285689710    1.72325135289239    0.98239362997527
C         2.10874504550599    3.80593638542335    0.55035080191038
H         1.38134588945575    3.64233598369062   -0.23120494641854
C         2.49632430365765    5.09628850023179    0.87379519104983
H         2.07154680466403    5.93848336296515    0.34709628983801
C         3.42688929861857    5.30982583429310    1.87425574714331
H         3.71484891931711    6.31936980250955    2.13399572303453
C         6.61909876463095    5.60260165969104    2.12755276050333
H         7.70657226162025    5.56694083492549    2.16096413296837
H         6.30388924378654    6.63587676522530    1.97208460560180
H         6.24506203554532    4.98687373006646    1.31125907259277

