86
CSD_code = ZOGWUP | q = 0 | S = 0 | Stoichiometry = C35H46ClN3Ru | MND = 9
Ru        4.60014422096687   10.14017275613840    4.85897453118367
Cl        2.38580310514361    9.40515651952618    4.48461495542890
N         5.57499156177752    7.11635281440740    4.84984616924357
N         5.63845545224826    6.11094669399341    5.70671229359747
N         5.14573898278562    6.57260738513741    6.83639901392786
C         5.06359512650481    8.24608717677787    5.38489583080221
C         4.77929897348920    7.86192370194793    6.71154001209592
C         5.04823354266500    5.70048801527053    7.96937168535352
H         5.43254477878353    4.72644299736087    7.67252829991033
H         4.00681472218890    5.60558034467555    8.27907081319524
H         5.63760469626868    6.09168033274065    8.79988418854665
C         4.19117719798853    8.86308519763299    7.55835122446083
C         3.81954345887021    8.75205574475807    8.89431882040009
H         3.96762376867508    7.82986757119447    9.43776414151144
C         3.24579998418323    9.83910014456753    9.52485863771892
H         2.95335910380867    9.76963789478751   10.56261877874353
C         3.02862163962820   11.01195929261830    8.81862638331691
H         2.56066572307940   11.85316558145627    9.31135760608423
C         3.39613340763423   11.11548157209552    7.48538619214231
H         3.18127732746305   12.03789008957242    6.96075018453546
C         4.00717519767641   10.05971917317244    6.82423912438833
C         6.01694308398715    6.91332044507090    3.49018447063931
H         7.11040614482614    6.93012607250136    3.46314716639796
H         5.65236927575384    7.76199397651142    2.91063330367533
C         5.49403329583419    5.61373611686215    2.92101978733736
C         4.22917044207424    5.58991772278246    2.32056052007311
C         3.80121685609235    4.42657847075114    1.69917310540214
H         2.83693615186185    4.41861360512974    1.21788877508250
C         4.57907540158468    3.28026858656888    1.68030791742359
C         5.79305396244361    3.30446584047775    2.34421422060742
H         6.39225371671877    2.40617035700768    2.36100423566200
C         6.25903884010416    4.44596952105070    2.98363119211235
C         3.31535219517648    6.79446053884279    2.31518036350667
H         3.60056018328225    7.48980177218595    3.10813260556264
C         1.85929287506241    6.42145373003054    2.60326640987175
H         1.80671458340739    5.70971150540346    3.42380346267209
H         1.36726098523228    5.99336273061741    1.73300206335490
H         1.32421117180014    7.31967386727957    2.89978171646952
C         3.41802039685764    7.52354850311342    0.97272335714144
H         2.79073858401534    8.41078233271655    0.99278194543293
H         3.08730437744644    6.87823656075942    0.16106890129471
H         4.44511951336270    7.82147145529445    0.76622268723957
C         4.10974456797485    2.02817327415197    0.98103581191858
H         4.89524356525971    1.26909116013563    1.07374958883667
C         2.84143893685937    1.48443684556461    1.64255940923078
H         3.01861227464095    1.29284196778511    2.69871271928930
H         2.53652446230689    0.55450511662108    1.16725095175416
H         2.02580143323161    2.19795846820155    1.55724002909061
C         3.87556554931212    2.29041722760960   -0.50798795148829
H         4.77743686355711    2.68852813297912   -0.96857359728325
H         3.07187871545915    3.00798783927915   -0.65232594904527
H         3.60537797420200    1.36695212598375   -1.01566622972686
C         7.57684265017301    4.36279229640070    3.72433367215726
H         7.72226568088549    5.26709110241365    4.31763580889789
C         7.57113116076017    3.20158979702921    4.72122013447367
H         6.70012201751033    3.27902616254067    5.36702455123125
H         8.46724884549378    3.23751597138291    5.33753126702017
H         7.54647803590985    2.23947107300740    4.21747831777711
C         8.73940191493417    4.23260460055331    2.73729828595547
H         9.68796068547209    4.20118215225796    3.26967486525191
H         8.75460528765956    5.07678357641638    2.05042522408044
H         8.64438576863460    3.32208061998317    2.15091918819468
C         6.47961308757062   11.36870275400050    4.88157183789970
C         6.46940120570883   10.52413121852019    3.73866129835511
H         7.34432120630030    9.90956500473115    3.53782284875376
C         5.45737113206744   10.62004067004379    2.75461970472091
H         5.54386088597350   10.06654220597529    1.82689758568878
C         4.35246336901836   11.45823047133155    2.97097110105417
C         4.32341593635437   12.27739153901707    4.13010295129037
H         3.51922793064544   12.99542427377481    4.24999964717921
C         5.37700457924337   12.23930906183040    5.05722754092654
H         5.37929047023244   12.93904486858163    5.88544573457599
C         7.68383005857192   11.41486174445744    5.79435063258153
H         8.36936775625727   10.61305577782815    5.49129017259198
C         7.29869342688165   11.17787055659487    7.25570494507444
H         6.73586907386531   10.24948398846337    7.34702227589590
H         6.67733747229992   11.98605500044523    7.63283212556846
H         8.19108261004497   11.11459686125785    7.87451206959009
C         8.41178984328247   12.75338966470914    5.63103639579716
H         9.31406685427361   12.76588908093626    6.23813367891974
H         7.77573609442896   13.57755374107730    5.94611871387088
H         8.69236119482618   12.91285121021353    4.59138179752374
C         3.23473621000004   11.53175346771764    1.97578803862475
H         2.87710673150617   12.55450932941232    1.86528076015332
H         2.40327104319694   10.91778771224672    2.33462483154163
H         3.54804142847464   11.15266557574790    1.00473012064502

