59
CSD_code = ZOGXEA | q = 0 | S = 0 | Stoichiometry = C26H28ClN3Ru | MND = 9
Ru        3.08755507912551    7.41503945415509    4.03569386891435
Cl        1.10511292735812    6.52398909756346    3.08348133126564
N         4.72944064138646    7.54504572203515    1.52724534604404
N         5.37177673785726    6.87417737322836    0.59712925635951
N         5.16458202469308    5.61470654223995    0.88007410807521
C         4.07470139929556    6.76590513082310    2.42397490438118
C         4.82925202247023    8.97887365652480    1.56836782619108
H         5.19005537342759    9.30856487203206    0.59167031321674
H         5.58031308234971    9.24598309559068    2.32634331032088
C         3.50927737701106    9.62738386296198    1.91754172391979
C         2.67484632356569    9.05391643692969    2.87959561220804
C         1.48779828092203    9.72650434091193    3.16478803446483
H         0.79119779755551    9.29820133499215    3.87732426197897
C         1.15078825748556   10.91842238069428    2.54727669887557
H         0.22221538179893   11.41165605074588    2.79827450863230
C         1.99781714218424   11.47264228798145    1.60393792230938
H         1.74239751761860   12.40015378722280    1.11283573124424
C         3.17292261672070   10.81818794576173    1.28671978925388
H         3.84086424343845   11.23582215425452    0.54484859433123
C         4.38791103400763    5.47009995345903    1.97891486458028
C         4.08598771650085    4.15702975070681    2.55082604022691
C         5.13272423359897    3.33296555630196    2.96232785890709
H         6.15554055684707    3.67318904313779    2.87012078036229
C         4.86728483357988    2.09427202883111    3.51548912624546
H         5.68352555408772    1.46585287414304    3.84177916145307
C         3.55778764980236    1.66232864693485    3.65216717664059
H         3.35322445574258    0.69308691789632    4.08302840611011
C         2.51636435173623    2.47732983908570    3.24129731890537
H         1.49492011868404    2.14557373719362    3.34768415719092
C         2.77227538180859    3.72267108799934    2.69457717414109
H         1.96388131538837    4.37088254863380    2.39214226513582
C         5.70419274341166    4.58994348994143    0.03346251400095
H         5.77370701138579    4.98311808490172   -0.97906853541166
H         5.05118926085506    3.71925278042803    0.05691404534827
H         6.70191915706436    4.30033420727652    0.36779683025843
C         3.12909436873062    6.02765417618374    5.93331037772406
C         2.25139559319462    7.13742037155550    6.11346616391213
H         1.24019964026465    6.95711856848178    6.46158023461132
C         2.70487840007230    8.45626696207136    6.00470228274702
H         2.05989082771748    9.28273050613707    6.28340538928253
C         4.03293110178914    8.72464085123065    5.56855595973380
C         4.88681779403271    7.62949954032403    5.31593229009710
H         5.93367569377458    7.80708274791193    5.08435018554663
C         4.43947983293281    6.29391991069636    5.53681804070260
H         5.14643318587731    5.47556768027365    5.43896622149975
C         4.53561464204759   10.13881467818361    5.51478265487189
H         4.61585375253786   10.54291977619276    6.52528050334211
H         3.84924258606120   10.76925905680246    4.95061251977672
H         5.51624009010151   10.18810654428398    5.04545039658224
C         2.71240292494066    4.61589189177489    6.27200603778686
H         3.33307167288689    3.93224317070403    5.67965074256615
C         1.24638790918869    4.33002476154980    5.94940608519758
H         0.99379792559012    4.70847678228960    4.96046412039404
H         0.58659987565842    4.79240636354047    6.68085625660107
H         1.06857721925925    3.25738571026478    5.96957994461762
C         2.99982365229653    4.36063249842018    7.75746557680934
H         4.05577869526935    4.50699632189015    7.97925583568747
H         2.72930651377551    3.34036011794631    8.01959337327627
H         2.42075650123918    5.04157493776868    8.37922648054745

