105
CSD_code = ZOGYAV | q = 0 | S = 0 | Stoichiometry = C42H59NbO3 | MND = 7
Nb        1.10523991561127    4.04829101283311    2.72174481000537
O         2.48496406179858    3.36357044690487    3.96672810109894
O         0.11939453636797    2.56756911477735    2.72463185594818
O         2.00646727620148    5.36265013370488    1.92766490397269
C         3.79801256703990    3.20852391427322    4.07600813476650
C         4.47091320205150    3.70387046590309    5.21844960111823
C         5.83508410024851    3.51579906507438    5.34266370748477
C         6.55941682208705    2.86591844384453    4.35891339337349
C         5.90679518486692    2.37126069785887    3.24782929131485
C         4.53609045113054    2.51412608454266    3.09215241208216
C        -0.56095960326295    1.43221731954108    2.66328045219563
C        -1.31408543985049    1.12671216057845    1.51001786085786
C        -2.02027953132417   -0.06331881132483    1.46859864982821
C        -1.99664809863095   -0.94144556138584    2.53791162220718
C        -1.24963025295226   -0.64358345752922    3.66198419953408
C        -0.52539465489948    0.53479818771854    3.74814495357735
C         2.55270619241164    6.35034042958016    1.23406299002513
C         3.49723406308671    7.19437935551417    1.85035093336051
C         4.03338606257639    8.24553089895388    1.12575969361110
C         3.65889378020262    8.47348655649819   -0.18535512324456
C         2.75220586181945    7.62803122266468   -0.79581085844118
C         2.19460869158565    6.55817274383226   -0.11337346616689
C         0.25508900124855    5.04222750636736    4.76274572579266
C         0.22655950552427    6.45930235858123    4.35839366413219
C        -0.35262660914357    6.65302215887043    3.16533544415467
C        -0.81191632473382    5.39974329548281    2.52047360873244
C        -1.85171210277817    4.75828592196417    3.46253062113093
C        -1.17715296179076    4.50660196135147    4.82204938117681
C         2.88104810902386    3.35852681510854    7.09043378548875
C         3.64952925944343    4.40579249008353    6.27629326530339
C         4.45866601300958    5.30269997342839    7.20964025868816
C         4.08159068175120    2.81872670465009    0.65463626495559
C         3.84436896669021    1.92761523842866    1.88035834227613
C         4.28977174413262    0.49245607174915    1.59027609095746
C        -0.00254408885808    1.80139208468202   -0.47936710362556
C        -1.26493872616344    2.09000650883615    0.34485498612403
C        -2.50500935372612    2.04160899737239   -0.54464093314074
C        -0.40493896703764    0.64142643971137    6.26768359166457
C         0.33862781900322    0.84857105469709    4.94744909856015
C         1.60879173715336   -0.00713401263974    4.90018641222496
C         3.74756937453654    8.14229557786771    4.16358775051238
C         3.93382573772733    6.91667026860687    3.26857287861565
C         5.39103499340981    6.44707483613929    3.27518116897260
C         1.88463210086194    4.96669991868257   -2.02071463855659
C         1.22543813535440    5.62784275100786   -0.80732886122399
C        -0.04311887675147    6.37628299131329   -1.22278190389077
H         0.79626492754101    4.83635147018545    5.68729791093079
H         0.65284108965986    7.23705275903133    4.97673235765667
H        -0.44910022332801    7.61825281100596    2.68314320815924
H        -1.27366109739200    5.58841079890751    1.53951458005367
H         6.35151500401726    3.88397631453351    6.21532929055991
H         7.62694527820896    2.74092130630759    4.46303182043809
H         6.47615316760092    1.85902901524250    2.48650943696330
H        -2.59726513731213   -0.31523513197742    0.59294649145577
H        -2.55540749938321   -1.86408160086823    2.48896829062022
H        -1.22469041543762   -1.34340212649501    4.48308556746930
H         4.75625399872722    8.89712547722240    1.59254654857297
H         4.08014112587497    9.30260278555485   -0.73383542843188
H         2.47471744021872    7.80346105568529   -1.82440581555325
H        -2.22508354844538    3.82150832155916    3.03452716266042
H        -2.71082480847456    5.42894491401303    3.58303114105498
H        -1.71523885683892    5.03320157023099    5.61805502590056
H        -1.17960372921017    3.44239973486993    5.07316039337853
H         2.25615521382918    3.83878982321809    7.84165245888494
H         3.57833336851139    2.69103592931911    7.59414428901235
H         2.24825514689796    2.76923102331753    6.43134933220326
H         2.92040138613305    5.03322110128243    5.74810177245610
H         3.78200847939189    5.88943977556326    7.82856897476480
H         5.08879725813581    4.71270696742921    7.87172132398092
H         5.08797226953960    5.98849192471307    6.64662223419742
H         3.57250722518595    2.41034366249433   -0.21853138346720
H         5.14648458171789    2.87836101053542    0.43490069997554
H         3.71728801735380    3.83225514009475    0.83835553579705
H         2.76072564583187    1.89910815688675    2.08755503676837
H         3.64364039517637    0.04583549788394    0.83618676785909
H         5.31036029476895    0.46587206997892    1.21636591712978
H         4.23903910100602   -0.11390565844102    2.49209202190998
H         0.05068808583707    2.46795426652593   -1.33778003257069
H        -0.01716821592560    0.77352317778820   -0.83879084034370
H         0.89383505877223    1.94244194688441    0.12990431832226
H        -1.18161164485620    3.10976118213446    0.75308296513612
H        -2.48337090255355    2.86912168562636   -1.25108977034533
H        -3.41009728601480    2.12444772381724    0.05264390114910
H        -2.54390765118129    1.11638544650075   -1.11490592800246
H         0.19427595242395    1.01896323375850    7.09354358485459
H        -0.59951438409514   -0.41325046581535    6.44691150271638
H        -1.35624075094776    1.16989203760856    6.26108276283808
H         0.64376828721465    1.90227820046740    4.88115287913764
H         2.24762188554129    0.21810638482347    5.75148482727157
H         2.16741304079789    0.20152581445495    3.99004490825907
H         1.35954060642596   -1.06647192712810    4.92012446396668
H         4.42304080773274    8.94408259437102    3.87477404992046
H         3.95138021342987    7.88062334781806    5.19934175156681
H         2.72598326321373    8.50871025858552    4.09155822921206
H         3.30827463699656    6.10575390938791    3.66646405324701
H         6.04305952351970    7.21406822327147    2.86236880921231
H         5.50188225481743    5.54091543464267    2.68281728642332
H         5.71249580154208    6.22472922073029    4.28923343644428
H         2.78513313901927    4.43354421200135   -1.72378613049590
H         2.15899263982344    5.71146457947238   -2.76378667192041
H         1.19957761904281    4.26081292655011   -2.48645119557651
H         0.93540798384706    4.83146318995178   -0.09943786155164
H         0.18430387190923    7.13292573845850   -1.97011139962857
H        -0.48986548562298    6.86987992376374   -0.36261020260894
H        -0.77022380623722    5.68470349758182   -1.64471367751571

