75
CSD_code = ZOGYOM | q = 0 | S = 0 | Stoichiometry = C36H32Br2N2PtSi2 | MND = 4
Pt        4.37512263825962   -1.93605471445231   15.63811632539196
Si        9.08658809364694   -6.40221882070154   10.79282109826488
C         1.96305222168897    0.06032895436362   16.07412802817867
N         4.87111056567771   -1.86404665049022   17.59484878519935
C         4.00552611632921   -2.10827515964169   13.72654108577633
C         2.86174248648162   -0.70866059315511   15.79627378767874
N         5.96548228818958   -3.18156355338332   15.62690239268379
C         6.47371003094471   -3.78884284386303   14.56413933708684
H         5.97110799101442   -3.61334351162774   13.62210588855819
C         4.64350000303184   -1.16219223669659   19.86931950166026
C         7.59472221774561   -4.61549277573183   14.62314532928923
C         0.65280123229889    1.33897086724431   17.69609135329110
H         1.26113867018247    0.94139976566148   18.49658015235691
C         3.81294809369191   -2.58165462302629   11.14693048632528
C         3.94481220582620   -0.36874241829312   20.80310508174282
C         0.91286750437737    0.95918903866590   16.37611397546144
C         0.12262623756790    1.47652842552260   15.34637457371671
H         0.31965677478203    1.18607875729883   14.32596711589671
C         4.89245245405609   -3.10340925988717   10.42813543949769
H         5.82218768235893   -3.31193939705434   10.93872094354215
C         6.54476685901803   -3.36381497827455   16.83460866622498
C         8.08581499816836   -5.20688540763588   13.44062472922061
C         6.36536787446149   -2.70373166767988   19.26058176041186
H         7.20259049092267   -3.32904551036489   19.52522047611573
C        -0.89692121054771    2.35151718912845   15.65600696789454
C        -1.16245904624355    2.73265951591893   16.96110536665392
H        -1.96696752844498    3.41853555852898   17.17643746818445
C         5.72868685743407   -1.96806748548820   20.23578708294113
H         6.05463731372107   -2.00516969114125   21.26388148282323
C         2.61291249623320   -2.31498812273497   10.48275960662756
H         1.77649648623159   -1.91282313500147   11.03329177313027
C         8.49623008628983   -5.69404384481539   12.41248523380885
C         3.92326816709491   -2.32915528735832   12.53458257374349
C         5.92556066232966   -2.63807706424271   17.93589142861197
C         7.66468626888389   -4.18788490080105   16.97332378591506
H         8.11806751651376   -4.33077643996070   17.94079972281141
C         4.25695320623675   -1.15350889275676   18.53005429078323
H         3.42146712485950   -0.54829540041760   18.20373980424933
C         8.19837403172305   -4.81771149038347   15.87047894237627
H         9.06567453547155   -5.45398141700821   15.95742435552746
C        -0.37632246073384    2.21616357576124   17.97816884055681
H        -0.57542954137466    2.50632773297903   18.99922187983301
C         3.58625579247394   -3.08708847249958    8.41056112987433
H         3.48835301079126   -3.27821286012955    7.35324673379659
C         2.52069999986842   -2.57352222218980    9.13154680535364
C         4.77420568175353   -3.34807696397728    9.07385970699296
H         5.61163859024579   -3.74726264808789    8.52091771076757
Br       -1.97818585494671    3.06363496526408   14.24786451167118
Br        0.87664706308169   -2.21599081984547    8.22118978175251
C         8.02123600917982   -5.62131998500411    9.42166813490615
H         6.96740865726177   -5.83526353417109    9.57535140985234
H         8.29561709767714   -6.00162451666630    8.44171334324604
H         8.13932117329884   -4.54167943482964    9.40024475431170
C         8.85665393695756   -8.29125704137877   10.86569461331563
H         7.81421594530490   -8.55552850342668   11.01599359725376
H         9.42709434941565   -8.72849609591173   11.67979166108352
H         9.18570948442994   -8.76245285353280    9.94395488601587
Si        2.37899839027825    1.41015460796275   22.75950547705112
C         3.33685047088120    0.32255074513589   21.58762019034666
C        10.92422368099034   -5.93797878419052   10.59963423695104
H        11.52420580379646   -6.35487066433751   11.40316110827472
H        11.06236415000351   -4.86091363111515   10.61186614900449
H        11.32718028291482   -6.31018021027493    9.66210688258907
C         1.75669555612956    0.31310440727515   24.18689776840747
H         1.11246694072816   -0.48134554352973   23.82210964613967
H         1.18758949848237    0.89259804753288   24.90811845584963
H         2.58248566512488   -0.15149348240911   24.71759162957088
C         0.93397119690316    2.16476369802726   21.77609572997744
H         0.28498714351295    1.39093624843063   21.37596200203257
H         1.29594947655151    2.75754220731401   20.94089762824562
H         0.32630313808004    2.81299628113337   22.40120271947233
C         3.56968513098250    2.75572551114219   23.39200151951011
H         4.41959696672905    2.32056774116698   23.90935761424787
H         3.07135230510625    3.42676292235439   24.08565730605612
H         3.95581256969797    3.35621879770732   22.57377823606253

