75
CSD_code = ZOGYIG | q = 0 | S = 0 | Stoichiometry = C36H32Br2N2PtSi2 | MND = 4
Pt       10.20447878503835    7.46466566178184    8.67565419881168
Br        4.60528518476542   12.67939307201824   11.60032661711215
Br        7.70714100865163    6.24320380457533    1.17876581667634
Si       12.19656050804253    5.01429968577973    1.16248585402899
N        11.53683042463787    6.38390766168746    7.60728043175569
N        11.46468146049719    6.92837615643820   10.15904311409984
C         9.04039462344320    7.85087821681234    7.15417683862761
C         9.00873361029037    8.49972578928376    9.82495673086886
C         7.70172521928094    8.08841734958095    4.90376708788849
C         7.29281868173078    7.39129069258253    2.65103211269037
C        12.47496103932085    5.43844726392502    5.62068498148052
C        11.51699999816497    6.19395714243374    6.29587905890782
H        10.70556292512966    6.66075274626448    5.75354063023354
C        12.31314524430168    5.16507958758476    3.01992039613527
C         8.38146170488162    9.11087629553592   10.66706535056079
C         7.88626010890654    9.66820128590903   12.99731231921167
H         8.64652618892735    8.97159164964887   13.32191817958626
C        13.24450190405871    5.91981438010066   12.03921148884802
H        13.92967083981509    5.52851494689792   12.77543426690096
C        12.47173623379858    6.11443009290213    9.77137667387500
C        13.52185019542324    5.06020954125461    7.73656109447476
H        14.30893720287871    4.62407999287381    8.33014779350056
C        13.37492961791063    5.60052205586870   10.70531389241304
H        14.17255633379682    4.94843890530816   10.38825985189407
C         7.64228258490541    9.83569340618443   11.63110736525233
C        12.52752498235073    5.83244780012318    8.34248999501149
C         5.95012150609967   11.44225042933929   12.16686979278625
C        11.33941300423860    7.24274603299285   11.44042737256078
H        10.52065918861950    7.90186763931093   11.69730605124746
C         6.65848332992618   10.73758611044269   11.21717318893599
H         6.46750156505800   10.87096082327061   10.16350366782016
C        12.19907126902720    6.76586001562385   12.42887665385579
C         8.00588765392352    7.25541858460930    3.82313145543282
H         8.78662426499996    6.51336359997595    3.90897607112076
C         6.68796851910877    9.04047177027959    4.76908284809645
H         6.45866915914432    9.68066307398371    5.60704105239244
C         8.42078011799709    7.95789475495531    6.11458190823181
C        12.39231984028293    5.28653844213036    4.22093805422784
C         6.18356204835192   11.28181173650376   13.52269924261101
H         5.61401616282925   11.84491666408694   14.24563796522556
C         7.15969031091830   10.38575051801783   13.92750029775460
H         7.34928755953628   10.25204744924596   14.98229448696443
C         6.28685014866409    8.33042206978834    2.50724214441842
H         5.74410459509366    8.41445989140453    1.57835811039468
C        13.50200171109482    4.85638706426141    6.37429525258446
H        14.26149034149302    4.26336372032761    5.88843415277318
C         5.99272579005425    9.15580227267237    3.58179076389778
H         5.20908652486271    9.89227287811880    3.48294324411346
Si       11.41081750176498    8.00831908805054   16.66264297131331
C        11.78400468830951    7.46553286221406   14.91942285055816
C        11.98754374349418    7.13789022592744   13.77298647947136
C         9.80656496066625    9.03185335516776   16.59461127956919
H         8.97404536892713    8.43171229308543   16.23843974674557
H         9.91156391296665    9.88139681654987   15.92582580571312
H         9.53972603433019    9.41549237804688   17.57531800883979
C        10.89398617655229    3.68655880450067    0.76445574160091
H        11.10814082813052    2.75074762463072    1.27252300711680
H        10.86012462758435    3.48291351791253   -0.30181191060988
H         9.90152931359030    4.00828098202922    1.06366819107904
C        11.71399812667551    6.72427187860121    0.48329985989385
H        10.73915238437345    7.02900705206065    0.84988302730505
H        11.66339027018721    6.71329556924731   -0.60142870706318
H        12.43066759859502    7.48726088546837    0.77412268073631
C        11.19301873369895    6.44253927745471   17.72540129707587
H        10.39065243490407    5.81655591239566   17.34650172918394
H        10.95348961630891    6.69670507104471   18.75395533370533
H        12.09870715845918    5.84344517686713   17.73791808901654
C        12.88279944670833    9.05349827911312   17.26963036997121
H        13.03972367230538    9.92002719020858   16.63440854476702
H        13.80303907544314    8.47695856095953   17.27166048144674
H        12.71851745183711    9.41298051610868   18.28127860416957
C        13.92614220493968    4.49098057284918    0.55234795775791
H        14.22733064043422    3.54022847336873    0.98183806250669
H        14.67984024455447    5.22556556244127    0.81994679561263
H        13.94331256316036    4.38241134794066   -0.52806221613595

