75
CSD_code = ZOGZAZ | q = 0 | S = 0 | Stoichiometry = C36H32Br2N2PtSi2 | MND = 4
Pt        4.74000978814908    5.13599155576862    7.17872506507144
Si        9.22148890465221    0.61527994247859    2.19466419996559
N         5.28721543318953    5.19563947090949    9.12129823574534
C         3.25416380082499    6.39122043840312    7.37539723668027
N         6.30325281774264    3.85829059482109    7.12708633551980
C         4.31505602971616    4.97139050249244    5.27817505360409
C         1.35061102815184    8.09682681486778    7.99433266708802
C         7.87572361426393    2.39092320460097    6.08259995463171
C         5.11381776586003    4.03176932240918    1.94130662608389
H         6.06953436231330    3.85775926559081    2.41542645145772
C         4.72060052170720    5.92866472909837   10.06878383041623
H         3.89955420477945    6.56272624904470    9.76103718693918
C         4.04298711194851    4.50639055965876    2.70427797312082
C         4.19644426419251    4.75463195251134    4.08851607486606
C         6.32241546071546    4.38657175920896    9.43934011073801
C         2.37669107850388    7.17716822143572    7.67284347964620
C         8.32826274083489    1.80004833807171    4.88467964657815
C         6.77696289112202    3.24843292327657    6.05018447306264
H         6.26391293252636    3.44633002018067    5.11825735184272
C         6.89803142064264    3.64866657735983    8.32281055040614
C         8.49342031104962    2.15821094720841    7.31754465876344
H         9.34337311353702    1.49655278594403    7.38367717852045
C         7.99598024566868    2.79173065259278    8.43515650635973
H         8.46066620446346    2.62643327474704    9.39366647918230
C         2.80847027901583    4.72794728223366    2.08853014775850
H         1.97840237802912    5.09313333309116    2.67341480604263
C         8.70114230423222    1.31467081807206    3.84172193725444
Br       -1.56656513409402   10.22185157404700    5.92300157587750
Br        0.98384548047177    4.76887784921737   -0.10405678642003
Si        3.05836130569334    8.62464112864885   14.29352521372376
C         0.53828381938062    8.61299041793798    6.98128509141586
H         0.69859890449720    8.30334395355059    5.96007234408055
C         5.13829273811124    5.90838393509888   11.39853618093446
C         3.93631158982052    7.46402924648021   13.12976095023873
C         1.13883685180220    8.50153319694308    9.31547249281817
H         1.76470644325667    8.10491839982193   10.10281291516393
C         4.49523853612341    6.73662951965776   12.34148874703467
C        -0.67238526476115    9.91794528038303    8.61459448012825
H        -1.45656637199172   10.62268869740672    8.84367380465624
C         0.13551250734544    9.40256500701584    9.61503289008035
H        -0.02548927284715    9.71355073579067   10.63666776839640
C         6.78685961979586    4.30283741407818   10.75455167677477
H         7.60574948165370    3.64666130458634   11.00128110184446
C        -0.45488165633131    9.51168560612192    7.30820261114509
C         6.19887494036727    5.06122641547812   11.74290294979473
H         6.54490295747653    5.01171382094323   12.76389327566162
C         2.67475131426431    4.47279451105172    0.74013434067996
C         8.99959247527671   -1.27429970782081    2.27306257966932
H         9.61784474165659   -1.71283403959031    3.05075808054438
H         9.27452568764627   -1.74206236228916    1.33215576128233
H         7.96829828761855   -1.54090005834616    2.48385505627506
C         8.09304257557323    1.40430006661106    0.87964151956120
H         8.22281780714664    2.48248916161529    0.85044198297822
H         7.04628579191619    1.20374491931113    1.08990679622337
H         8.31032052241258    1.01963360361654   -0.11289486380125
C         3.73158109359938    4.00695205890930   -0.02474267034963
H         3.60087509160656    3.81804579165727   -1.07892738679020
C         4.95368723858548    3.79031086055477    0.59078779663426
H         5.78432610842487    3.42759244064886    0.00350756460379
C         2.33436753700185    7.58124817563985   15.71288248265908
H         3.11463988783441    7.05045123545984   16.25031425969473
H         1.63164229321363    6.84204680341168   15.34000101377139
H         1.80692724784417    8.20373960116630   16.42988845988429
C        11.04701467083462    1.08729552675488    1.92163168117892
H        11.68484570054228    0.66434191973805    2.69218618377140
H        11.18202326150244    2.16473946873266    1.93898632900917
H        11.40737685353126    0.72659476179007    0.96250680060691
C         1.69140377894159    9.49203719140469   13.29174061436295
H         0.96471345825112    8.77530297097984   12.92007134122503
H         2.10552133797889   10.01692428845157   12.43556148127493
H         1.15700036158686   10.21922095914763   13.89649232814616
C         4.35099066845382    9.86764325137374   14.93559564525749
H         5.14842209593198    9.36525966719588   15.47511527839248
H         3.90164563500295   10.58990642789104   15.61097732509030
H         4.80503799227675   10.42000546558332   14.11830871741464

