58
CSD_code = ZOHGOV | q = 0 | S = 0 | Stoichiometry = C24H26N6OPd | MND = 4
Pd        4.76922190318813    3.44762538371620    3.72189436358746
O         5.46931185200434    1.31002102681458    1.15170467536409
N         5.95514023893133    3.82722679134520    5.44971856505917
N         7.21524547474437    4.34566413880536    7.18679436244945
N         7.85399129194631    3.44021921891369    6.42973790135700
N         3.04379630464208    4.68113137824862    3.94977540623759
N         1.32453998917185    6.05351051890346    4.15366357317184
N         1.21744073212779    5.37812976609231    2.99983311499084
C         6.26023740682815    2.23484425430355    3.28858479499368
C         6.37927436127081    1.40713756104482    2.16917567585586
C         7.49551921709672    0.58175906268911    2.00914299570611
H         7.55474814916254   -0.04414335836887    1.13177045646071
C         8.49453900242644    0.56884067372546    2.96145533156708
H         9.34976817651872   -0.07756844364593    2.83163540217708
C         8.40874038034604    1.37492350820683    4.08269021333483
H         9.19988761815749    1.33313590384302    4.81209586541748
C         7.30276306720579    2.20803925398133    4.24495970844182
C         7.08911607661852    3.11249164355077    5.36809241016551
C         6.08137180157787    4.55637810800377    6.56875583161981
H         5.34090978186864    5.24261688851969    6.93093619365193
C         9.13888621723065    2.97517707631443    6.87618963258770
H         9.51034819924127    3.74201536775684    7.55855773841838
H         9.81587204037578    2.90072785126698    6.02177108992591
C         9.01919079148013    1.63355522370544    7.60589542442770
H         8.45786790126421    0.93661350806927    6.97893491198502
H         8.45071540802503    1.78517817784628    8.52553886244143
C        10.38099931687039    1.02578722285988    7.93761302493969
H        10.21707939310535    0.03385700333571    8.36318848196229
H        10.95607854266997    0.89750435046152    7.01761001855914
C        11.18502080696357    1.86227348702557    8.92593455731898
H        12.09318280866764    1.33624383144655    9.20995771586533
H        10.60379652587231    2.05050812996380    9.82550374759098
H        11.47082509420844    2.81704417647973    8.49266566422414
C         3.86403272276114    2.94212379979827    2.04643815339771
C         4.30120028523738    2.02033867016682    1.09224423918307
C         3.53182090300521    1.75156194302237   -0.04305208432004
H         3.90072205746342    1.03422048303856   -0.76028037684137
C         2.32313330869844    2.39050660305319   -0.23317076781700
H         1.73343729532123    2.17041481538815   -1.11057058607964
C         1.85956827828669    3.31031446846265    0.69097057623553
H         0.90839955231997    3.78633575825259    0.52052344929227
C         2.62674853160657    3.58993665725510    1.82089985299850
C         2.26289837753376    4.53512034301965    2.86782640302517
C         2.43037971633286    5.61139097119690    4.69650473520482
H         2.79241528750365    5.96585602796878    5.64176007962951
C         0.10401290991192    5.62907020549337    2.11834539249452
H        -0.49838201212851    4.71672857288959    2.03885614639067
H         0.49385902703396    5.88174686609222    1.12631559141701
C        -0.76123762028853    6.77200442989740    2.63880304315095
H        -0.14764162896032    7.66819051554946    2.73789303465289
H        -1.13124290288866    6.51700259834018    3.63220211782476
C        -1.93400291434332    7.04678057743863    1.70120266687699
H        -1.55508221919725    7.30244639440434    0.70893147380234
H        -2.54011744551943    6.14332407757525    1.60183949173474
C        -2.80388180867923    8.18493809972227    2.21927208884456
H        -2.22176091995139    9.09905672807394    2.30842099104684
H        -3.20765407672874    7.94018749348803    3.19879532282965
H        -3.63365057613781    8.37043421518817    1.54175125316769

