73
CSD_code = ZOHQOE | q = 0 | S = 0 | Stoichiometry = C40H28N4Ni | MND = 4
C         3.10634320862880   13.41036222741345   14.45018034328067
C         3.91281000389475   14.17388240536073   13.61428533925466
C         5.11653362826439   14.70864287901171   14.06043940434881
C         5.90694540493936   15.62367163212196   13.29129671140323
H         5.70183933641707   15.91070924747365   12.27895792955358
C         6.91915065659001   16.02948821558941   14.08992379259574
H         7.71363255646646   16.71398236287239   13.86523429988942
C         6.77530016016375   15.32314509056119   15.32850979893652
C         7.71362468433712   15.40187916536221   16.35153640977628
C         7.70272346512149   14.52209023584347   17.42674642103746
C         8.75542644781233   14.45286128465593   18.39684246466566
H         9.59115662956916   15.12271145875178   18.44483091698854
C         8.48471085199605   13.39149903987382   19.18860445316039
H         9.06137482533043   13.00792421260742   20.00685897050676
C         7.23265158403857   12.85415323903521   18.74481515010625
C         6.58348073342214   11.80237653004270   19.38273838515682
C         5.28325857616183   11.44396251389896   19.04968739296982
C         4.49826475357601   10.53320615563520   19.83388287830448
H         4.86491160005604    9.98545945261769   20.67990866761863
C         3.24983596134327   10.55415611600449   19.31725835863747
H         2.37932708894632   10.01575425146034   19.63890023609587
C         3.28435599944495   11.44413155772942   18.19509722672918
C         2.20760779351250   11.64785882266532   17.35560381721045
H         1.26700624704893   11.17880656899947   17.60014581096693
C         2.30677146784746   12.34907733107118   16.17074305786021
C         1.25428458068914   12.40776074541474   15.20071106561241
H         0.27443263302579   11.99394114584550   15.34124860172756
C         1.75762990384811   13.04652457249822   14.12129906440926
H         1.27172232897582   13.28171887516202   13.19460348000487
C         3.43934433258721   14.46525122139481   12.24751677575805
C         3.26884510156491   13.42744994364329   11.33757351194921
H         3.49444961019016   12.41539108742783   11.64119217604699
C         2.82837082148565   13.68478752485352   10.05246044895464
H         2.70846728468625   12.86597394414056    9.35711856727853
C         2.53686653118208   14.97949204837760    9.64482103142918
C         2.69659069674354   16.01342737809676   10.56137987965546
H         2.46539074881195   17.02635982381195   10.26302117790490
C         3.14319330017041   15.76398171532474   11.84424649616026
H         3.24954076032342   16.57587404942630   12.54918305251913
C         2.06243733185356   15.27018526663972    8.25365177605091
H         2.78755847173168   15.89283145004167    7.73009123315075
H         1.11744909408846   15.81126546326643    8.27798820136779
H         1.92424745512171   14.35181356697667    7.68867127778583
C         8.79279746682881   16.40441376409877   16.23779501235275
C         8.48524624693291   17.75997691488036   16.30062068996273
H         7.45738339580546   18.06208539964796   16.44021333783546
C         9.48480503460637   18.70984369960204   16.19505940985945
H         9.23595040060827   19.75960436578899   16.25066010043143
C        10.80095202804582   18.31757077572372   16.01627158966710
H        11.58088465499800   19.05984796406448   15.93166542456147
C        11.11323926413776   16.97035430432591   15.94243837274851
H        12.13771366955436   16.66008937489724   15.79623655460144
C        10.11645859685412   16.01777337192355   16.05396726857799
H        10.35721230030669   14.96670914749768   15.98506345910224
C         7.25373235305809   11.08499427073457   20.48579036117841
C         7.55574167939717   11.71908425911231   21.68562275361059
H         7.28595930503932   12.75657203273405   21.82098978137063
C         8.18038235459042   11.02630331705896   22.70628958800312
H         8.40544499929152   11.53349807029928   23.63396156551173
C         8.52229694721154    9.68841396242835   22.55708911780552
C         8.21337475203237    9.05667144651252   21.35789269893118
H         8.46952939963319    8.01508448445650   21.22442834720993
C         7.58385944657499    9.74145235263956   20.33670120171318
H         7.35143203437097    9.23983827449548   19.40839908187823
C         9.18483359057306    8.93125156030677   23.66738730493857
H         9.66568257302234    9.60899837056382   24.36858504788685
H         9.92961892984537    8.24233423688994   23.27423606911485
H         8.44425760602340    8.34620887377158   24.21401623485518
N         3.42515041899470   12.98344255551124   15.70753816342553
N         5.67688666319140   14.51162576446410   15.29317560725192
N         6.76823842608053   13.55167339787866   17.66416940346905
N         4.52987929249540   11.98617995020959   18.04749418343368
Ni        5.09999151787842   13.25818191848250   16.67843621390243

