39
CSD_code = ZOHTIZ | q = 1 | S = 0 | Stoichiometry = C11H18BF2N4NiO2(1+) | MND = 4
Ni        5.47607161726138    5.08083670530007    5.53068717242128
N         5.05887338670486    4.13413612820504    7.08671464143156
C         6.04989803814235    3.60023029670393    7.72410132358185
C         7.32286927991813    3.82858142870684    7.03814069430783
N         7.21581347622880    4.39272276253767    5.87660071289179
C         8.36586421269361    4.58084978858583    5.02514761681141
C         7.92790149183169    4.96665563160223    3.61158072772540
C         7.29181873605645    6.35593523944348    3.54763370799112
N         6.02350122168567    6.36305542329213    4.23635928966217
C         5.19286798140854    7.34914798723452    4.10769109449444
C         3.90265737994854    7.14923562163641    4.76999441122287
N         3.88946240626000    6.06664370742737    5.47795701383236
O         2.77253164416436    5.61001334306026    6.02634653999541
B         2.88805414911064    4.12493766600735    6.26348069110082
O         3.80247805452683    3.90814739184032    7.44324196428909
C         5.89101650669548    2.76693103794538    8.94254395315055
C         8.60972671694387    3.36458108465600    7.61513436657959
C         5.46735638660284    8.55875291181074    3.29176687090668
C         2.71469434971314    8.01755236201525    4.57243779305778
F         3.65527900586306    3.65329585613272    5.13932559850920
F         1.71106990110295    3.54719181199651    6.42526842982475
H         9.01637771893427    5.35918121875670    5.44575594388698
H         8.94059648940476    3.64887204906382    4.97562529470030
H         8.79415619809632    4.94125902793103    2.95137902899248
H         7.20003379179994    4.23057888797433    3.25636423677100
H         7.13884682502773    6.62712563672811    2.49671877209171
H         7.96261078312496    7.10059530347629    3.99644436258910
H         6.42634187685865    1.82515038045829    8.83948505386959
H         4.83440378125574    2.56545196280385    9.10435425024107
H         6.28089055173787    3.28999198216011    9.81572269470368
H         8.49769037441410    3.07843403379373    8.65526329665441
H         9.36496911751881    4.14608247586109    7.54000534701574
H         8.98015246998471    2.50283491631596    7.05685111550394
H         4.71860431356347    9.32604767266789    3.45578963955475
H         5.47205560657734    8.30057938285289    2.23119236275527
H         6.45038284517104    8.96371648605612    3.52919491684812
H         2.55702636944201    8.22259799312371    3.51545183907498
H         2.84622038033602    8.96727846633660    5.09096243801389
H         1.83593456388942    7.52158793750057    4.97878479294516

