40
CSD_code = ZOHTOF | q = 0 | S = 0 | Stoichiometry = C12H19N5NiO2S | MND = 5
Ni       -0.02405520688253    1.57245839159268   12.63398812488212
S        -1.09966452225061    3.83826771039556   12.31849730516143
C        -0.69361930350608    4.20912153701462   13.85303458891152
N        -0.35323807152476    4.41113174258858   14.94368706048390
N        -1.27140225605544    0.69808417327427   11.66190896918379
C        -0.96708626412073    0.49217406349260   10.39755775420621
C         0.33604517044818    0.95528741723198   10.02552752770029
N         1.02647875986933    1.47282566710929   10.99833232292786
C         2.32212545280611    2.06749308594532   10.78222674944931
C         2.53031708813981    3.24946820872661   11.73140496828409
C         2.64577593195604    2.84122756487030   13.19974421497961
N         1.42810343198658    2.23635630259299   13.69130423231341
C         1.17010887535535    2.24799373803636   14.96427047352763
C        -0.10874855722006    1.68358102438948   15.35391942770134
N        -0.77703027094795    1.15619123901673   14.37370740995965
O        -2.00933995351399    0.65274355740426   14.64173879483725
H        -2.39252017073488    0.43274208838138   13.72466249534527
O        -2.38968508637599    0.34296845794600   12.14459034254926
C        -1.94001808842364   -0.15918887820388    9.46399067389888
C         0.82675451168907    0.84777386734967    8.61586769956742
C         2.10516154249707    2.78374904220170   15.99835025027290
C        -0.62842743888620    1.74775936482032   16.74985789920012
H         3.09650502663511    1.30844766752785   10.95906555779223
H         2.41878758733222    2.43170387059169    9.75325494148751
H         1.68346491943542    3.93251907795438   11.62551428962936
H         3.44053552769603    3.77849750242491   11.44499676500202
H         2.87459306963201    3.74186693473562   13.78077690424218
H         3.47292221369886    2.12716976178056   13.32010596362692
H        -2.16343790634408    0.49425290239712    8.62214085347903
H        -2.86137642900687   -0.35755539567300   10.00713539380819
H        -1.54644631603551   -1.10187396535001    9.08497254440519
H         0.17062446722772    0.21477939875673    8.02878322573154
H         1.83270222585246    0.43224113494517    8.59230870984361
H         0.85373695199656    1.83550022621549    8.15479546287414
H         1.82794319636434    2.43660632429917   16.98711817909158
H         2.05192331962826    3.87239226901349   15.99303296854151
H         3.12971614859136    2.48215006186287   15.78795621859596
H        -0.59137309319238    2.77741230215728   17.09816823549291
H        -0.03450130653553    1.12109889701155   17.41417407178779
H        -1.65805517728139    1.40108166317198   16.76633042922580

