46
CSD_code = ZOHZAA | q = 0 | S = 0 | Stoichiometry = C18H20ClCuN4Se2 | MND = 3
Se        5.58142099619538    7.45052014683624   11.52639623925790
Se        1.80778749007594    9.45489846825855   11.54209705545333
Cu        5.03668256280185    8.00880257860905   13.68531923966642
Cl        4.49537570853868    8.70919647124079   15.57867400147505
N         4.41724074037548    8.95105273713198    9.42063006327393
N         1.83576848021337    7.06062465547422   13.03176717176315
N         5.20679288436808   10.24352475791927   11.01598733498727
N         1.55684241131565    8.84825343567149   14.28515541570493
C         4.16899128081874   10.24797272673660    9.04028073837641
C         5.01631739432483    8.96492123088512   10.62773987367116
C         1.74528162734516    8.41016374192425   13.02678627914409
C         4.67651049363430   11.07566200786991   10.05505516139344
C         1.73587009050837    6.62331930843130   14.33383066493017
C         1.55797488815536    7.76473320605140   15.13162776250217
C         3.97851548913424    7.79690576239460    8.69091285556311
H         4.29322097572003    6.90085977493528    9.22400311182292
H         4.41810609614244    7.79797853066158    7.69291166669941
H         2.89037074021384    7.81253347813997    8.60873695340468
C         4.58344244368528   12.45630609367089    9.96421545884825
H         4.96663203020374   13.10478822730165   10.73546360713378
C         3.54956024645578   10.77517847417513    7.91732768702351
H         3.14791716249458   10.13884456002343    7.14595330939665
C         1.42775938753737    7.66784412002823   16.50717426153057
H         1.31447654215829    8.54458758414779   17.12245192566587
C         5.82552404396633   10.67289021963459   12.23695063943438
H         5.43328922384520   10.08636518532976   13.08346319167180
H         5.59789476513172   11.72206027497951   12.40323500844692
H         6.90761966043163   10.53170488258325   12.19192769211678
C         3.45772484584894   12.15096217954104    7.83899094278189
H         2.97542669973526   12.60094606554339    6.98531210844168
C         3.96682955432584   12.97424684849304    8.84180214755747
H         3.86991012628608   14.04414427281897    8.74159429503591
C         1.52313648948347   10.21616445224538   14.71609576569222
H         2.41099162805482   10.41772615483898   15.31940170029104
H         0.62512492102525   10.39730836855065   15.30741464371830
H         1.51804980991910   10.86188972933934   13.83963773655913
C         1.48497891794275    6.40040568287289   17.05461690372341
H         1.39919534951553    6.28423432828143   18.12398029901943
C         2.02367153983106    6.21770107094779   11.88686390153957
H         1.84909261961783    6.80898398316539   10.98915494220796
H         1.31624762684687    5.38890794612086   11.91937224233886
H         3.04365197077183    5.82432796003097   11.86386114049220
C         1.66463852713401    5.26767923577013   16.26336585949112
H         1.71253411440013    4.29838617518808   16.73576012406593
C         1.79437974277824    5.35570859458468   14.88965525003218
H         1.94642966066451    4.47898431060670   14.28014562657134

