14
CSD_code = ZOJBUY | q = -1 | S = 0 | Stoichiometry = C2H6Br3OSZn(1-) | MND = 4
Br        7.76583983339480   19.95133084662032    4.15512947821046
Br        5.50021007278062   18.80680131896770    0.59682464514380
Br        9.42580220467161   18.09933830039540    0.55641723207802
Zn        7.62167905630818   19.25977572285277    1.85062886247337
S         7.77468857785628   20.27112843004182   -0.76431489357374
O         7.90417607557316   20.89594253478784    0.58001221070077
C         6.59865456512959   21.39215273993474   -1.61474359620825
H         5.61165488529509   21.17501929682116   -1.22150015214339
H         6.62805543698710   21.18429561812446   -2.67776239854474
H         6.87161163348998   22.41862103679228   -1.40160233102795
C         9.24851925524258   20.90994341152601   -1.64862693070361
H         9.35105412462711   21.97012351587491   -1.45137527271707
H         9.12847196153236   20.71153951555845   -2.70698806844605
H        10.10768231711112   20.37018771170227   -1.26589878524235

