139
CSD_code = ZOJCIK | q = 0 | S = 0 | Stoichiometry = C40H91N3OSi3Zr | MND = 4
Zr        1.19939311300693    6.83689166823688   15.47531384172095
O         0.55983955671287    4.45806683543749   15.37692981165890
C         0.78964187264803    3.33049112609249   14.53154812865041
C        -0.60005275011899    2.78519586960024   14.21088116055055
C        -1.35903371691766    3.02249055642809   15.52169608434877
C        -0.53151248995362    4.10129298719860   16.24537623856439
N        -0.60391305210580    7.29465910990659   16.03820796874776
Si       -1.95715917347925    8.07036834720987   15.43581666048476
C        -2.18026302216008    7.56411813088027   13.53684624448242
C        -1.92076045049399    6.06066077310022   13.43490404793674
C        -1.07970075584402    8.23698027264231   12.71993276772806
C        -3.52162685068740    7.87652895099125   12.87708109489083
C        -3.56668168632658    7.56165104197311   16.44762813910678
C        -3.21168359651058    7.53276700361050   17.93375346590914
C        -4.77350782706880    8.47700037065645   16.24747916423891
C        -4.01404017888798    6.14330446673926   16.09390629470869
C        -1.68060624851527   10.02998299456348   15.54060579632545
C        -1.87419746527079   10.50493501854115   16.97962417952786
C        -2.57417201376504   10.89711888036264   14.65401252891004
C        -0.21677845670718   10.31204825056628   15.18154451654685
N         1.72534233760451    6.46853101105025   13.46963019634239
Si        3.09354561542960    6.69254477724495   12.48245031387653
C         4.58401395072165    5.87523214209069   13.46930194000310
C         5.85170810797854    5.66248436383103   12.64185804435004
C         4.94697814553188    6.73110857061881   14.68279639545944
C         4.14365079719185    4.52650144363062   14.04654907791466
C         3.36590225737577    8.63981334329181   12.28351980742872
C         3.06313073293044    9.31087359293061   13.62992265728085
C         4.76948229378373    9.05518424680600   11.83981398624308
C         2.37120566739798    9.23388309459732   11.28280917508415
C         2.81471297802060    5.82806024255518   10.74470717063475
C         1.40316684201756    6.11653277618733   10.22610481375958
C         2.91821283060734    4.30529386882472   10.85601349682803
C         3.81762005310306    6.27991406020349    9.68322624610816
N         2.43321605451051    6.11168448816777   17.01521957189319
Si        2.77529524353596    6.60489410047594   18.61097985283240
C         2.51577407069420    8.53763695132471   18.53623083294602
C         3.07615541541670    9.05740177719438   17.21094908719724
C         1.02778397367119    8.88241523431692   18.53099659491281
C         3.16007168415463    9.30480513520715   19.69191425467928
C         4.62856298629749    6.10421816506358   19.05110734625756
C         5.64809613041453    7.04974900385677   18.40984428574066
C         4.92322905355216    4.71542386889920   18.47546320418996
C         4.91193192238698    6.07890087983772   20.55264420541159
C         1.47860072212677    5.75087890579196   19.82192530195512
C         1.75822826168299    4.24653058420738   19.87611073931079
C         0.06598546654410    5.92435199127460   19.23753404368331
C         1.46429840735879    6.27846103998956   21.25770026059821
H         1.38573738401254    2.57811564456019   15.06996680712136
H         1.33767030402072    3.67381318530420   13.65276229191074
H        -0.57297585601993    1.73664038229802   13.92459902901780
H        -1.04723451187713    3.36125135685675   13.40244626583536
H        -1.40335869297466    2.11125981428342   16.11662273542965
H        -2.37662442393133    3.35711012178138   15.33663077060999
H        -1.08012883329402    5.03797028684811   16.42795856529400
H        -0.12449657418523    3.70990838313226   17.18686440552736
H        -1.81855600697957    5.75462123758013   12.38905822992873
H        -1.00034501002591    5.82703789128922   13.98120423802774
H        -2.73817948947144    5.49412413329729   13.86723547231598
H        -1.02364383992518    7.80543646892992   11.71644248772167
H        -1.26980255731461    9.29937892633643   12.60168851156957
H        -0.11491902285433    8.09703705924981   13.22250279162623
H        -3.50387285082893    7.58945341556506   11.82236366056214
H        -4.33160162514158    7.33041657492475   13.35224270777641
H        -3.74918425135954    8.93692347023391   12.93126234226334
H        -4.03419949191634    7.11603932035542   18.51836915675552
H        -2.32787270163621    6.92095033764517   18.08603754963653
H        -3.00410279737859    8.52637093923032   18.31135053331926
H        -5.62935413999393    8.09972144879529   16.81196889494161
H        -4.57073655938594    9.48403301367991   16.59788944476509
H        -5.06002569054771    8.52962856709829   15.20088259982682
H        -4.81673018297801    5.82263859273567   16.76171120443949
H        -4.39408263770371    6.08586034281990   15.07848883703410
H        -3.18738475732341    5.44738189884746   16.20495309338897
H        -1.53039365269595   11.53616057900163   17.09473691725037
H        -2.92129266352916   10.48187865182889   17.26291434337166
H        -1.31736102607269    9.87617720049914   17.66450401793110
H        -2.36365548342493   11.95547350897857   14.82666290892625
H        -2.41042576654792   10.69974562936844   13.59841386297484
H        -3.62393282773754   10.72606382932571   14.87335006580908
H         0.08002761766055   11.30642031005585   15.52298211461220
H         0.43090191150497    9.56268573643090   15.66142990867922
H        -0.05974903298926   10.27726528629689   14.10717408284349
H         0.92413610337467    6.10054250265306   12.96557448720569
H         6.65080016754367    5.26424241383662   13.26975133193930
H         5.68337049321216    4.95332487034294   11.83651186380330
H         6.20104626163065    6.59451702864927   12.20711801246420
H         5.70973637605101    6.21944784591260   15.27370268992529
H         5.36084867974591    7.69156899997247   14.39009145172878
H         4.06413157546211    6.88263242902438   15.31473095298836
H         4.94074734264618    4.10202632391335   14.65984378299274
H         3.26120578545581    4.66899155642257   14.67411971986269
H         3.90999901302528    3.80833898279885   13.26817413641927
H         2.95193711819989   10.38884162179543   13.49846456936466
H         2.12230815284061    8.91551162947310   14.04508088476802
H         3.86624405713113    9.15228997521647   14.34388140491084
H         4.82613872983996   10.14025133717588   11.73850484329140
H         5.52430875350711    8.75265889721643   12.56011709659373
H         5.02137199632463    8.61638260830989   10.87881640925779
H         2.45208859704283   10.32241237439423   11.27305203952021
H         2.56597220431180    8.88697239771234   10.27310973912916
H         1.35147629500929    8.97535742718172   11.55355872569815
H         1.25997767234158    5.64593210227546    9.25220208092420
H         0.65211428246127    5.71262522677997   10.90174563517160
H         1.22081208252040    7.17833084461575   10.11367676409339
H         2.65110912889505    3.84235871661232    9.90457550584628
H         3.92743629689592    3.98930788123890   11.10033340891276
H         2.23662664449481    3.92267341372923   11.61298282375686
H         3.66314136663841    5.72190202567967    8.75819748149473
H         3.70067867200916    7.33432545642616    9.45288281559283
H         4.83969951292055    6.11120408921194   10.00919211760009
H         2.57021110344409    5.11174874184164   16.87829656825241
H         2.88161872692691   10.12793714813480   17.10689786149856
H         4.14923396193668    8.90195224200230   17.14283984667594
H         2.57398674856128    8.51901517806763   16.38248394811210
H         0.90219080665919    9.95077229651373   18.34331446112326
H         0.49201252722078    8.31748979515851   17.75456628807701
H         0.57968793491971    8.67335108437900   19.49696270404950
H         2.92550691835407   10.36782135016825   19.61767919310414
H         2.78789955170569    8.94623386548917   20.64734109069239
H         4.24070628315046    9.20501739652830   19.69317222072826
H         6.65801773118126    6.66695637313453   18.56616991641383
H         5.48169100873405    7.12866406690057   17.34091009740357
H         5.60671918560905    8.04238912405932   18.84633481560368
H         5.94690465054144    4.42006594962642   18.70944745624781
H         4.25813989906020    3.96050859721903   18.88015299390682
H         4.81257883107185    4.72453852510350   17.39420705651164
H         5.96866199700621    5.87546966576070   20.73281237974513
H         4.66986507114336    7.03335990451814   21.01165937684447
H         4.33982255346070    5.30056122614011   21.04828348752742
H         0.98275996578753    3.73482838004817   20.44827264777591
H         1.77578216974686    3.82319606376098   18.87341016269617
H         2.70885206571167    4.03580956050035   20.35637606819757
H        -0.56689294878318    5.08181325705379   19.51757184290107
H        -0.40723998062484    6.81770856758212   19.62970709289469
H         0.08979795117027    6.00733911625786   18.14730788717042
H         0.69175776909433    5.76842513493443   21.83446891262986
H         2.41538782289940    6.11532791924093   21.75446222177074
H         1.24767526397279    7.34277263176659   21.28021673916311

