87
CSD_code = ZOJGIO | q = 1 | S = 0 | Stoichiometry = C31H48CoN4O3(1+) | MND = 6
Co        2.42683399977653    1.91996282780570    1.51179652771477
O         3.35314492782363    0.79544790655698    2.59600147862522
O         2.39396558713059    0.25155781321150    0.79576364217685
C         3.11529048990540   -0.23232310062294    1.79535259102244
O         3.47654035755723   -1.36291056992966    1.94436939208959
N         3.98788437404514    2.45057489206078    0.36419690965941
C         3.53255107741214    2.39288065963637   -1.05949648228765
C         1.98479438365562    2.35885495946138   -1.14280223192608
N         1.38052252047442    2.81603926981091    0.11527901300091
C        -0.00905941625275    2.38130730703940    0.35589735690977
C        -0.22802708681600    2.52023148529516    1.86607840913748
N         0.76216351416671    1.71464684861254    2.61697282215649
C         1.05960633145417    2.26677138730680    3.97505205070641
C         2.33723462464255    3.14425020127530    3.94635328012757
N         2.66353672815758    3.55181187029422    2.57378266281642
C         4.06453920274419    3.95064885999250    2.33783604229872
C         4.27796710843801    3.82753131853210    0.82557215299035
C         4.12045871354097    3.47931844058090   -1.97450786186140
C         4.08570221363991    3.04280473823819   -3.43636648989525
C        -1.02465300790711    3.18971918541718   -0.45885953612178
C        -2.43244396120098    2.60669882052648   -0.40023975110009
C        -0.11109348626498    3.00061498352762    4.64890800613381
C         0.05570114773126    3.02156295937627    6.16563081455027
C         4.36758084734735    5.36017293983513    2.85763605392907
C         5.85515141131527    5.69455531104001    2.83537661256884
C         5.18510719419564    1.58272586354625    0.55841927047279
C         6.39997384507931    1.95114946448008   -0.25396336002268
C         6.63406128571432    1.35525321994579   -1.48903652258240
C         7.74959210074321    1.69116754703505   -2.23531560596815
C         8.65491140843704    2.62121962008045   -1.75279292962778
C         8.45577339229191    3.18851791980152   -0.50608748199004
C         7.34086612085658    2.84924279718720    0.24156017122960
C         0.29581042526653    0.30238295275630    2.72672365212272
C        -0.95883628571228    0.08678004556841    3.53375156242716
C        -2.21228909164050    0.14395863599202    2.93131584697184
C        -3.36320719035321   -0.05512913219792    3.67498921125152
C        -3.27662012884945   -0.33249281697848    5.02821118939367
C        -2.03306551328473   -0.43794596234189    5.62812435661667
C        -0.88374067348241   -0.23476939658380    4.88523605414809
H         1.37869938876049    3.83760280195899    0.11199825926088
H         2.07896571734707    4.35493725190735    2.33525866130116
H         3.88099091790485    1.43089159744844   -1.43768719886430
H         1.67008442963305    1.32555262860704   -1.29088040688051
H         1.64210113149777    2.95731563902272   -1.99222761727943
H        -0.07011833726973    1.32728067532501    0.07101051906406
H        -1.24076857667732    2.21370905672073    2.13287975244112
H        -0.11601788258504    3.57349902468041    2.13186335221201
H         1.29609240341438    1.40134545635143    4.59545255015140
H         3.17410468371759    2.54708942602312    4.30935562191849
H         2.21141573226876    4.01089445437409    4.60229408447127
H         4.69722273244395    3.22659426878399    2.85868502905791
H         3.60320955627778    4.52705990939824    0.32766746298294
H         5.30042514495893    4.10385259331638    0.56241026148308
H         5.15926148156329    3.66800664304115   -1.70702800284696
H         3.56735471984685    4.41588912001245   -1.87262025167431
H         4.47530266197653    3.83727190865056   -4.06662353259606
H         4.70333148855935    2.16184496289957   -3.58437905453856
H         3.07566843881606    2.81264698832538   -3.76479263317440
H        -0.70173417838427    3.20015758880751   -1.50149168123083
H        -1.04414344250537    4.22332659451719   -0.10219841895646
H        -3.08480695348358    3.15197878138092   -1.07629045723113
H        -2.42690543679824    1.56363143003126   -0.70597830857196
H        -2.85369391880081    2.67836330935029    0.59868533080457
H        -1.04754386858861    2.49237499586712    4.42304329400733
H        -0.18622900035545    4.02891630726313    4.28772207508745
H        -0.76482852372640    3.57113762465307    6.61825067466778
H         0.04380106206137    2.01072575558234    6.56259966452952
H         0.98733292405906    3.49585369433192    6.46250140944932
H         4.01614643113796    5.43176259138709    3.88857771059125
H         3.82038170050898    6.09746562400117    2.26357743366090
H         6.02272096480731    6.65807973973289    3.30811486547269
H         6.42280669043638    4.94727364155128    3.38383004454409
H         6.23714430131488    5.75108629164021    1.81984910896435
H         4.88957859994899    0.56014779450853    0.31801167906457
H         5.43856992607675    1.60427915141151    1.61944028318860
H         5.95337016745860    0.60337371171851   -1.86038818445205
H         7.91796856032508    1.21789208844127   -3.19030077565750
H         9.52434729575978    2.88409080738597   -2.33455501530386
H         9.17567091763386    3.88664530316952   -0.10698367055087
H         7.22614360423743    3.26250444254103    1.23408783600653
H         1.10851065514166   -0.27612984872821    3.16906146715284
H         0.14529288130426   -0.07450381816569    1.71392679364191
H        -2.29559854458806    0.30800078863357    1.86584269096014
H        -4.32728302740832   -0.00702527242575    3.19209918364010
H        -4.17303843803873   -0.49031440774648    5.60701686226339
H        -1.95722930191760   -0.69026363569349    6.67450665458498
H         0.08089262815135   -0.35400755516332    5.35638571331842

