51
CSD_code = ZOJGUD | q = 0 | S = 0 | Stoichiometry = C21H24AuClN3P | MND = 2
Au       -1.19674221244372    8.29854494204761    8.40512936530571
Cl       -0.27993167017169    6.65064781059729    7.15070070054585
P        -2.07998173261420    9.88135640496036    9.73763069100408
N         1.04863216212390   12.39164339292198   11.83014988138560
N        -3.91322524015473   13.76695943213224    8.23931488190587
N        -3.54872708856882    8.25950322428279   13.86132926530003
C        -3.00375096723377    9.16092899672769   11.14701018686109
H        -3.35200426439948    9.94539499902485   11.82455079972263
H        -3.87409977830363    8.64627760481800   10.72459973572297
C        -0.87396852412276   11.02996965470631   10.50968406198414
H        -0.84767359930790   11.94896707183658    9.91660284407640
H        -1.19072546910555   11.28324766899834   11.52528671310989
C        -3.09702034700273    6.08711484760989   12.99769469135958
H        -2.60718007357400    5.47556487316138   12.25538370133625
C        -4.28701242149086    7.70824350676336   14.80682770192418
H        -4.74171946483680    8.40122666363765   15.50320699296567
C        -4.48388238452278    6.34083655412029   14.92234326226615
H        -5.09612544810217    5.93657637830467   15.71298712973845
C        -3.30021515667004   10.99888488296712    8.94752957236832
H        -2.75680421293158   11.53952178742705    8.16423738704320
H        -4.04838113730420   10.36802061270674    8.45596340069334
C        -2.13756725361147    8.16367642445351   11.91891295229600
H        -1.32279893604324    8.70169088239010   12.41036474030711
H        -1.70749717687079    7.43015556122832   11.23148769091613
C        -3.87310136548914    5.51500034001233   13.99218482123448
H        -3.99993754977900    4.44315100445875   14.03876958251032
C         0.52306287774976   10.41343311904917   10.54260614780021
H         0.85833843309075   10.19706464052966    9.52362295531909
H         0.50371701743407    9.45768770260846   11.07641164778770
C        -3.97446161320139   12.01284546246106    9.87734339501840
H        -4.68385824717140   11.51884813854197   10.54127467162328
H        -3.21317608089076   12.51244822825707   10.48049476344973
C         3.26845859036581   12.99613081380095   12.45593106840441
H         3.92430960832456   13.68839642635073   12.95983946515536
C         1.52133941310037   11.31871272043293   11.21194905051787
C        -6.63888282917807   14.22060552606489    8.33526359841723
H        -7.70462840328802   14.39398166377291    8.37395075499733
C         1.90017763933119   13.20467611071310   12.43268442707716
H         1.45406424534585   14.06343112531060   12.91775165037945
C        -4.68249550832901   13.05339689646139    9.05319785448038
C         3.76669505127804   11.87275950946254   11.81155342586724
H         4.82750265116283   11.66839618137701   11.80217029199494
C        -6.05697939249182   13.24681810262388    9.13067952480611
H        -6.65691613473778   12.64929151453884    9.80051831603283
C        -5.83181182433372   14.96456036286412    7.49007666514156
H        -6.24423823733804   15.73171832365611    6.85409650373396
C         2.88177349698266   11.01915392814643   11.17882731501829
H         3.22904233781192   10.13598145968215   10.66448151829849
C        -4.47187027142214   14.69277349531178    7.48335262676700
H        -3.79313665937246   15.24066874642057    6.84258958133868
C        -2.95738484943205    7.47031427990718   12.97145002524042

