120
CSD_code = ZOJHOX | q = 1 | S = 0 | Stoichiometry = C61H51N2O3P2Ru(1+) | MND = 6
Ru       11.41656625244566    7.96891191099561    6.05206669697043
N        11.46100503957648    8.27608700716741    8.03623794711583
N        11.97592474390678    9.84319543931920    6.10961889875934
O        11.38035653867227    7.79245816683206    4.01572268492246
O        11.06691165560541    5.87659326311706    5.78621605247394
O        10.67390544217715    2.78133610801650    2.26927086107859
P         9.08095507148135    8.25138561607250    5.94509387209670
P        13.64410290059822    7.22327677218796    6.00730047772982
C        11.20810235858584    6.63485155497210    3.57153541096634
C        11.04418556800301    5.53846395010858    4.53044263605631
C        10.86330496130249    4.24518457894758    4.09153952738107
C        10.82973388593690    3.92548334429156    2.68330603815001
C        10.97854228799797    5.04651503812200    1.71458590220385
C        11.16248631321539    6.36393253107581    2.14833066943014
C        11.30437882791712    7.38932407714325    1.21353352203571
H        11.44572428678501    8.40052575864223    1.56459261544004
C        11.26107212182379    7.10852341751561   -0.13865068259728
H        11.36911487116160    7.90526592508483   -0.85926584103267
C        11.07865555994423    5.80295905917211   -0.56960554636344
H        11.04469507223414    5.58346883922900   -1.62591983628207
C        10.93966286230492    4.77931445618895    0.35341311863151
H        10.79759716863125    3.75646858106901    0.03777633788670
C        10.75246548715695    3.10516340517360    5.07027444348908
H        10.14291792082430    3.41329026131222    5.92282605408359
H        10.28340303822306    2.25765781504702    4.57418558127228
C        12.13246471311078    2.75219576753339    5.55578097361309
H        12.52107965678912    3.42348430567923    6.30962857650301
C        12.89336498547339    1.75431330118645    5.12046718125954
C        14.26076524516249    1.52199418749294    5.69439359166502
H        14.32886772917077    0.51153734486581    6.09565407158363
H        14.48918491459097    2.22894646944962    6.48987197517621
H        15.01812271145283    1.61637567639691    4.91564219281010
C        12.46349285979370    0.76515792289121    4.07893016979710
H        11.88250714399060    1.24005841211112    3.29240882951531
H        11.84561824206289   -0.01059144123268    4.53192922965225
H        13.32992298480243    0.28284209691376    3.63293798766267
C        11.00138969340388    7.45290591573841    8.97858342360853
H        10.52738298022111    6.54629965497488    8.62782231621237
C        11.09844378446555    7.72333185921563   10.32843375185790
H        10.71125638877281    7.01980448571697   11.04669267533245
C        11.70176889975921    8.90810245914876   10.73631038319389
H        11.80491497371291    9.14409320993949   11.78319417112100
C        12.15032483701066    9.78585775929317    9.76917575618317
H        12.59991858967372   10.72427133833066   10.04841987283831
C        12.01344832871664    9.45461853630825    8.42136809788204
C        12.36104093662892   10.33202631188226    7.31216449001155
C        12.97805166864967   11.57666387483149    7.42492863361660
H        13.29436302798716   11.93866199915680    8.38892470395171
C        13.19273647714976   12.33191137372745    6.28981556932161
H        13.67689379699454   13.29273593256502    6.35271494761836
C        12.76407580311090   11.83060055996630    5.06364757883715
H        12.90009338335180   12.39678587702034    4.15669147012855
C        12.16249049171272   10.59134790174087    5.02200107156004
H        11.81419838686818   10.16157171694759    4.09081661934060
C         8.47560174919414    7.67090599795572    4.32851872136226
C         7.95897233790346    6.39469538608018    4.13699813220366
H         7.80716246570703    5.73638255755241    4.97998814435696
C         7.62867074473196    5.96541855913533    2.86209441935232
H         7.23329274259495    4.97128176014150    2.72042066124221
C         7.80718612893819    6.80284378299466    1.77515855321718
H         7.54894542035977    6.46474074673515    0.78357229903978
C         8.32397982669565    8.07658204715499    1.95998526585845
H         8.46136048323205    8.73183751628956    1.11285372005727
C         8.66991467775737    8.50519114697807    3.22636848198249
H         9.09293281535846    9.49149518539110    3.37419173557852
C         8.08065493894891    7.31601221608845    7.14708455533872
C         6.99219417034589    7.87968289565402    7.80502813952018
H         6.71932921234992    8.90905406279246    7.62506262491816
C         6.25125832957967    7.11846100948827    8.69237423582021
H         5.40514253119333    7.56127140658616    9.19570348055339
C         6.58619147402603    5.79619392613052    8.93189425519836
H         6.00118800437744    5.20693447088963    9.62125439824312
C         7.67396732255360    5.23146683950061    8.28524554090360
H         7.93831960005798    4.20062098683344    8.46992281284266
C         8.42116296213058    5.98673235681006    7.40008652872475
H         9.27638837201749    5.55342038721845    6.89671760646442
C         8.38218378040346    9.92791107365350    6.08359873309084
C         7.28373227741175   10.35447239081320    5.34278607900381
H         6.81723144959092    9.68746093723887    4.63222594120294
C         6.78201827675854   11.63116545820556    5.52344446133073
H         5.93031576097337   11.95630494192408    4.94537747169766
C         7.36236434567063   12.48804652402944    6.44481317624622
H         6.96893886978540   13.48388774867527    6.57869090435301
C         8.44073855823201   12.06056731485692    7.20243644893098
H         8.88567584105302   12.71908375054062    7.93352168759396
C         8.94511295011561   10.78567957052443    7.02458605754990
H         9.77214038742417   10.43983141695941    7.63155340834652
C        14.17633913801190    5.87928226951207    7.10854358777487
C        13.26873251658271    5.18175229402804    7.89394517016469
H        12.21625241499980    5.40236270539580    7.80223061938245
C        13.71474964269921    4.19269474121800    8.75590480808580
H        13.00663786260294    3.64884110561015    9.36306546013012
C        15.06405165884602    3.89236509176243    8.82658199174714
H        15.41097077729295    3.11881924620041    9.49455987219136
C        15.97220575580844    4.57844724430354    8.03234427938530
H        17.02301055438253    4.33628328049079    8.08052368723156
C        15.53493840686096    5.57216364208477    7.17871834002844
H        16.23969934733982    6.11221823124953    6.56081153066061
C        14.86483564048363    8.49070259279104    6.49884531396351
C        14.94617706350059    8.73707554031125    7.87032728942367
H        14.37897742281694    8.11828598384297    8.55538350524752
C        15.76621304054756    9.73486936784743    8.35868743631262
H        15.82803495541933    9.90722745347369    9.42288104324529
C        16.51342667464257   10.50646547294873    7.48275893147873
H        17.15361030514885   11.28866927375206    7.86054133290879
C        16.45167890438046   10.25635995921304    6.12296838199916
H        17.05041718733198   10.83893422122083    5.43907179148623
C        15.63208146128514    9.25517261865214    5.62921421260500
H        15.61958080733565    9.05723840972181    4.56876405759251
C        14.11189137815629    6.62258398448511    4.35601960185720
C        14.11766082538656    7.50863902913245    3.27799585114055
H        13.89092472488681    8.55518785606924    3.44003670875408
C        14.36925535419430    7.04773055729256    1.99970661881334
H        14.38993025421059    7.74078491198193    1.17185300710627
C        14.57267161810814    5.69487073915796    1.77608769311784
H        14.74959271805115    5.33581335013829    0.77403647810087
C        14.52791290905837    4.80556122657552    2.83591477807889
H        14.65855345631882    3.74840474248710    2.66391137537194
C        14.30383955292220    5.26329587052467    4.12234769776069
H        14.26302299177126    4.55871892800557    4.93948111108106

