42
CSD_code = ZOJHIS | q = 0 | S = 0 | Stoichiometry = C16H15N4O6V | MND = 6
V         2.88240774870186    8.19357660997785   10.47553365638077
N         4.23905277338138    7.69741907596995   11.83712559546404
N         4.45482013584107    6.39147036685668   11.98634481342195
N         4.77629677462072    2.23200641835770   11.97180562406191
N         2.72255311867206    7.81231755669462    7.81515721543202
O         3.58094748045714    9.75269651781145   10.53538942974579
O         3.06344606938995    6.31839710910235   10.22543909474201
O         1.77538151008078    8.22042751007756   11.51897150324382
O         4.69097795501569    7.89195087969913    8.85646481299705
O         2.09744155178838    8.21575417471620    8.93140640427868
O         4.27141849536282   14.06374162072143   12.46343545816467
C         4.61564676282852    9.92669368551964   12.63295558709540
C         3.99422368428327   10.51684786468289   11.49673728177618
C         3.87934816585851   11.91126084709703   11.41795798289487
H         3.40093530694017   12.31875382980018   10.54046818795319
C         4.35191632206018   12.71533081338610   12.44264886471012
C         4.97593985552804   12.12942735800645   13.56024189674828
H         5.33869165714944   12.78128386966615   14.33792601778944
C         5.10775383553327   10.77002686746496   13.64345494832754
H         5.58465861214572   10.32571057757739   14.50422705831215
C         4.76173516249377    8.51440466621722   12.69453769521428
H         5.34809198241073    8.08216264323998   13.50647970014831
C         3.76542080204009    5.71417088947048   11.10459907955060
C         3.80809839593777    4.24544410386348   11.13072768694495
C         2.93235127212580    3.50521913108437   10.33743015412623
H         2.21451338986212    4.02225842038137    9.71566027251001
C         2.99893439338987    2.12408886737225   10.38077039966700
H         2.33585255236846    1.51542415275779    9.78537129541573
C         3.93889676823737    1.53804200026951   11.21661183698700
H         4.02944106527197    0.46212116820305   11.28976881903745
C         4.71424868643913    3.54748949192426   11.93294726524042
H         5.40956331054925    4.08778470328409   12.55896279342328
C         3.63718332660090   14.72490497158750   11.39213839951137
H         4.16511753216951   14.55447227288391   10.44911925857002
H         3.67202825406532   15.78467886955380   11.63910708076513
H         2.59507615310459   14.40900023342259   11.28939757685640
C         4.67991874909839    7.14547321487244    6.55996154625019
H         5.71521554316520    7.47235729672172    6.51970933271344
H         4.14393700655633    7.50695363396477    5.68711528864129
H         4.66750455107615    6.05665576669338    6.55776272724961
C         4.05528246286676    7.64220305155812    7.84058002073697
H         2.11773082453092    7.55809689748814    7.03855033690006

