103
CSD_code = ZOJKEQ | q = 0 | S = 0 | Stoichiometry = C52H36F8N4O2Zn | MND = 6
C        14.88673495816204    3.96310792844631   11.01333092688496
C        15.49275995424071    4.73351140550464   12.06899619365048
H        16.54697645868010    4.85521495145448   12.22980720988974
C        14.47861254839962    5.25359215078325   12.79630527577227
H        14.54584269910799    5.89152940733335   13.65689414595085
C        13.25848729700440    4.78705253435359   12.18922128765742
C        11.98077843340353    5.10468975182766   12.64678366962470
C        10.78477713896172    4.67554902674846   12.07349740891479
C         9.47813689047567    4.98665505501735   12.59611696706413
H         9.27850015359668    5.57629406677803   13.47071488743959
C         8.58498491915398    4.38336123923028   11.78054598372424
H         7.51444992832755    4.38452237257786   11.86050809858766
C         9.35041297768284    3.70534879223954   10.76472755352464
C        15.59999172769906    3.25491881245430   10.04797428716419
C        11.88628050927281    5.97117419542543   13.84421950478672
C        11.45160705977742    7.29067138914384   13.76239391241892
C        11.35593265085613    8.11648264309249   14.86701066675712
H        11.01530479371523    9.13164872790278   14.74115870438336
C        11.70380125597425    7.61868947826917   16.11088822461029
H        11.63333336694356    8.25109913812140   16.98150085223123
C        12.14254514803870    6.31236307376801   16.24126970937225
H        12.41703061040427    5.90316262183756   17.20029375645464
C        12.22726972734550    5.51591411543017   15.11423421192990
C        17.07828714543622    3.31456032772190   10.11779879013338
C        17.83679009924222    2.21606916475478   10.51160069160659
C        19.21706454211294    2.24665201839639   10.58382754080911
H        19.75059477563467    1.36420912166220   10.89864725529023
C        19.88196100366235    3.41440566517011   10.25184597220334
H        20.95846978121160    3.45278336431738   10.30243761157545
C        19.16980893176808    4.53336708158247    9.85616681189713
H        19.66684128350114    5.45298990779330    9.59194161769358
C        17.78989907373868    4.46666964676512    9.79700368576922
O        12.16640322697746    4.96403525707086    8.53066068355596
C        12.50306818383830    6.24870219297722    9.04299226317930
H        13.58123327092397    6.25056716003418    9.22037311724876
H        11.99000796640805    6.41933885698502    9.99557716074582
C        12.07158805194695    7.28724167254448    7.99175224354553
H        12.88815438669454    7.95285980589175    7.72096097854626
H        11.24734809563023    7.88865067529587    8.37370304286417
C        11.60702485159758    6.42796873558831    6.81395994292753
H        10.79277884524991    6.87964743374235    6.25290617340632
H        12.43711713675157    6.22282001008127    6.13781901559528
C        11.19005938082501    5.14180400451005    7.52059825480462
H        11.20841965362864    4.26136033140160    6.87912234321871
H        10.19112098398084    5.24890115959616    7.96585566567016
N        13.53911357137489    4.01493993458977   11.11454482386543
N        10.67258414519645    3.89637747221933   10.97384793979529
F        11.12227762386342    7.78710431638051   12.55376577925424
F        12.64754217925028    4.24331183106908   15.25302519324926
F        17.19765582943656    1.07919809220789   10.84989193314416
F        17.10824444196131    5.55953610358657    9.40292944181824
Zn       12.19538132889001    3.09924660927214    9.89419358932451
C         9.50403318130084    2.23540008426303    8.77504643955739
C         8.89800703986047    1.46499042278216    7.71938470136006
H         7.84379010459669    1.34329254185238    7.55856980066413
C         9.91215422595045    0.94489436839133    6.99208776433144
H         9.84492421742372    0.30694877383933    6.13150490470824
C        11.13227976125883    1.41143601676877    7.59917199539762
C        12.40998764491917    1.09379279167395    7.14161396791160
C        13.60598768797879    1.52294221349456    7.71489240214335
C        14.91262663232293    1.21184065940449    7.19226818352857
H        15.11226228054770    0.62219660271992    6.31767335233374
C        15.80578006158949    1.81514750879471    8.00782763421702
H        16.87631465997073    1.81399466242174    7.92785922689857
C        15.04035274709591    2.49316256044311    9.02364564822657
C         8.79077576226920    2.94359895666343    9.74039492518763
C        12.50448697003604    0.22729301053686    5.94419143510356
C        12.93916226585790   -1.09220226902826    6.02603640494278
C        13.03483814844075   -1.91803042906396    4.92143227608400
H        13.37546967586830   -2.93319318593820    5.04729885919810
C        12.68696812862895   -1.42025708536224    3.67754719838457
H        12.75744167042186   -2.05267812657838    2.80694321821420
C        12.24822432317755   -0.11393214527519    3.54714605511465
H        11.97374084296663    0.29525393807730    2.58811511212525
C        12.16349906483680    0.68253382016385    4.67416971942242
C         7.31248172910194    2.88397357414966    9.67055892948983
C         6.55399675476476    3.98247349284407    9.27674787489428
C         5.17372257227626    3.95190992519030    9.20450950739468
H         4.64020685870751    4.83435871353447    8.88968224785624
C         4.50880710915862    2.78416623312396    9.53648867463050
H         3.43229840279849    2.74580221381163    9.48588542122651
C         5.22094112083004    1.66519598117742    9.93217615127690
H         4.72389406053981    0.74558025189405   10.19639851253683
C         6.60085156822561    1.73187496361915    9.99135060713941
N        10.85165295822509    2.18355666812028    8.67384001860771
N        13.71818230934330    2.30212215757319    8.81453656231372
F        13.26849301269749   -1.58861776344058    7.23467148057769
F        11.74322502105968    1.95513307062185    4.53535844402043
F         7.19314887128218    5.11933589208240    8.93845957226365
F         7.28248668999970    0.63900005934235   10.38543476782869
O        12.22433493015250    1.23445020853013   11.25772661172583
C        11.88769086973391   -0.05019639730857   10.74535255602668
H        10.80951499064736   -0.05204890142670   10.56796012066098
H        12.40078107436161   -0.22081141889396    9.79276737732817
C        12.31917562661854   -1.08867895001047   11.79666069270600
H        11.50257678893378   -1.75423623048218   12.06749408162990
H        13.14337011016538   -1.69015568296945   11.41472174786929
C        12.78378692237739   -0.22948210900673   12.97448854661148
H        13.59804282273338   -0.68117003841819   13.53553030315062
H        11.95370410539063   -0.02432401213290   13.65063883634163
C        13.20071365712239    1.05664928176514   12.26776235597090
H        13.18237789268515    1.93707845372089   12.90925300648305
H        14.19964307477855    0.94956384099921   11.82248076485604

