117
CSD_code = ZOJLUI | q = 0 | S = 0 | Stoichiometry = C38H69N9W | MND = 4
W         3.27684639214635    6.53042586662074   13.89564509094892
N         2.10403039122117    5.11314067814609   13.23478842206168
N         1.45941885012823    3.48119892589500   11.60045448957920
N         0.04540777491269    3.88398514046959   13.27146637853094
N         3.29591398505659    6.10280540226397   15.79735993007882
N         3.91006270815897    4.69466584673269   17.59434486488708
N         2.71450795176274    6.50709222303716   18.09910311491887
N         5.09489050582748    7.16994297989801   13.56595132325429
N         6.99730850123057    8.51662252070377   14.11707236745377
N         6.87314170646253    7.70616643294860   12.04300222122606
C         2.34139236291263    8.02504996056383   13.21923867825421
C         1.54153505602896    9.20674110365395   12.84351346265755
C         0.68611887350585    8.85488482085025   11.61134541344986
H         1.33057389098479    8.58726943985519   10.77648924980207
H         0.06404750505541    9.70060579428346   11.31863569022156
H         0.04489329408226    8.00509884324468   11.83258868772715
C         0.61519080955672    9.65700555822463   13.98657483944545
H        -0.10233426131231    8.87555492865563   14.22123896842554
H         0.07078755775746   10.55762610874069   13.70227495604672
H         1.20317301874517    9.86848342852271   14.87631032271174
C         2.46786355271790   10.38208585545448   12.47724864288971
H         3.02579225792133   10.70655628129586   13.35182498682375
H         1.88602571500889   11.22366981750784   12.10125522267679
H         3.17681535209110   10.07698829799323   11.71134159845096
C         1.29506792476764    4.26720739557915   12.75450554146103
C         0.36201923614740    2.65802054900629   11.45521271768611
H         0.26004056826942    1.95980854982818   10.65255365269142
C        -0.48949192385762    2.90261346912347   12.46178269922154
H        -1.43174914229288    2.43771597339150   12.65581629451143
C         2.62963937690789    3.52682164099017   10.74217345300635
C         3.84546842923041    3.09646622202328   11.57376400353929
H         3.97661153085821    3.78371210126990   12.41143667734204
H         4.74775316081359    3.09012039788897   10.96949714238478
H         3.68208901847678    2.09606423840478   11.97146793490654
C         2.77665741561718    4.95676764805052   10.20969991850018
H         1.87587072482815    5.23820074585764    9.66781327539840
H         3.62465342834743    5.02677405462602    9.53516654010022
H         2.90801469616289    5.65743650096113   11.04290916258529
C         2.47772481720077    2.56968378042726    9.55645126689658
H         2.38789888299786    1.53857370505621    9.89061882077795
H         3.36155790005069    2.64478020884390    8.92740229097815
H         1.60989763133073    2.82877629158817    8.95463006794520
C        -0.61932624663075    4.50476916858316   14.40814830234357
C        -2.01311476175909    3.90385919947518   14.61577173315330
H        -2.63932993170900    4.04977341004854   13.73876431170973
H        -2.48746795978234    4.40641835420436   15.45521818097025
H        -1.95627448930950    2.84208175075301   14.84568526249180
C         0.21681637022215    4.25527188444211   15.66675787203119
H         0.39610772276676    3.18839814193408   15.78700615149707
H        -0.30517019200590    4.62085579273908   16.54662128472499
H         1.17048227562101    4.77148831710512   15.57821430803985
C        -0.76028157471749    6.00510254411825   14.13357938934431
H         0.22893179605018    6.43756280578804   13.95866698879864
H        -1.22790003999343    6.50099580494304   14.97980262592059
H        -1.37576592170986    6.16304523055940   13.24982092045748
C         3.29508950384119    5.81814239116282   17.02645131335941
C         3.69456705620843    4.71660589862628   18.95553252058015
H         4.06268043719076    3.96426789935294   19.61948282341969
C         2.97541816954647    5.81028490334004   19.25885969731293
H         2.63820662134118    6.13030182760174   20.22139395263743
C         4.62486676095420    3.66985304098473   16.83931349647536
C         5.78661268325299    4.31076717006854   16.07039859948758
H         5.40718173132766    5.03664205872584   15.35001050777972
H         6.34503938310400    3.54635521978201   15.53503129950917
H         6.45853332193775    4.82008829364865   16.75790457240887
C         3.66092525948813    2.99211981435941   15.85796524372936
H         2.82532684513478    2.54847536930623   16.39540697787144
H         4.17786126076669    2.21026777056829   15.30637139714768
H         3.27222691967386    3.72302850247786   15.14939440734211
C         5.18997352225427    2.61040237295422   17.79014541523037
H         5.88241222895392    3.05317745593499   18.50269373455414
H         5.73137024717318    1.86727411877225   17.20968279024118
H         4.39415632107256    2.10194902721276   18.32987467310037
C         1.95649708974844    7.74896789841620   17.98347125426420
C         0.74280866458584    7.51217725841862   17.08233561256491
H         1.08770298597117    7.21991195671257   16.08767903399165
H         0.15906272670212    8.42430342433616   16.99583047565271
H         0.11203449180979    6.72915003144994   17.49622396951149
C         1.48629958490216    8.22216152702889   19.36090950777576
H         0.82550061938500    7.49275607446886   19.82398683899473
H         0.93316955231541    9.15033085281047   19.24150795310747
H         2.32958023431553    8.41363113105639   20.02084363989352
C         2.85065974956586    8.81866559716629   17.35376613627008
H         3.74328334120075    8.96844829080336   17.95660943772399
H         2.31339781152082    9.76058762790720   17.28242993951388
H         3.13608918936352    8.49624840421170   16.34917703609408
C         6.18286616421616    7.74377242608001   13.26769155236957
C         8.11838931296707    8.91274747438398   13.41291419983104
H         8.90296777305442    9.49205382253926   13.84961408810808
C         8.04717004295115    8.42066550510557   12.16839583004160
H         8.75685325848700    8.51640753454594   11.37498765273651
C         6.55784690130169    9.09201858398520   15.38180835244532
C         6.25322644183067    7.95958615894502   16.36559108550095
H         5.41105108322235    7.37462689476772   16.00010422565690
H         6.00696188094415    8.36333767150056   17.34408184477725
H         7.12262590880563    7.31231224732570   16.46399794338221
C         7.65244144296131    9.97906225291281   15.98337422207189
H         8.56591168426417    9.41373963205813   16.15483011963664
H         7.30537064715490   10.36132540065582   16.94030365127746
H         7.87023324834070   10.82952383521677   15.34184834967701
C         5.31123271222697    9.94239384343519   15.11413236590481
H         5.55278829933598   10.73754451513351   14.41090022233413
H         4.94563702905140   10.38748764974244   16.03499516571429
H         4.53088850565297    9.31328134613996   14.67900287940777
C         6.34771908289610    7.12400299910349   10.81988848101375
C         7.32322491560044    7.32042146645585    9.65581288944874
H         7.48723345332618    8.37650300527217    9.45558856588671
H         6.89852242410939    6.86985176583328    8.76187639546657
H         8.27834909668551    6.84012258277598    9.85669849661506
C         5.01785818117081    7.80743996667569   10.47788850446784
H         4.30435587929592    7.67539412706703   11.29964998526137
H         4.59652687353146    7.38993608449452    9.56743437935936
H         5.18176445102766    8.87307196284025   10.32917318343576
C         6.15298017974045    5.62484660263857   11.06051515933278
H         7.09135711423335    5.17307439184588   11.37796239063474
H         5.81694113431294    5.13407286455239   10.15220487252018
H         5.40963608803436    5.48840004268497   11.84872097413702

