41
CSD_code = ZOJQEU | q = 0 | S = 0 | Stoichiometry = C18H14BrN4O3Re | MND = 6
Re        3.22558499684641    2.47277298901641    1.96076487093834
Br        1.22739066265493    3.24824813196940    3.41033913923390
O         1.28169749206983    2.96644626296552   -0.39610514865808
N         4.31560650459325    2.43713550427436    3.79206995305751
N         3.34315547275265    5.34700581122878    0.18070193232700
N         3.84317279478186    4.58270032275239    2.31767936295279
N         4.08645409651132    4.39623528660788   -0.42748121088338
C         4.53861539751151    3.62609317885122    4.38581418497752
C         2.47330393102109    5.93551820033019   -0.69682699348627
C         2.04887463011902    2.75330565952730    0.42741571194944
C         5.09015963902826    3.70658731078234    5.66431681613596
C         3.58110026949659    5.62184561649296    1.52151388583690
C         2.69487393163424    5.33185722891500   -1.90799112181770
C         4.19165511821137    4.81358748763107    3.59648759409667
C         1.44899297988215    6.93928887929247   -0.31178838227563
O         2.29399265553092   -0.46899242615656    2.12540516871716
C         3.88580855532281    7.17125806414899    3.31128763670206
C         5.17224336685206    1.33001589120629    5.72722776049718
O         5.70771886198291    1.82772098806896    0.24392486816017
C         3.71874043998627    4.38256366492511   -1.68927203555802
C         5.40402582855409    2.54926302438937    6.34833917434468
C         4.78613300820704    2.07691560697792    0.87493698060823
C         3.59354116553962    6.93729577669957    1.98128866935150
C         4.32716756344139    3.45535135789139   -2.67391424158009
C         4.20708044641325    6.10147955273256    4.12638173786312
C         4.63422719941629    1.32654598574767    4.45565534959538
C         2.65183245909396    0.61596559611786    2.02025691238229
H         5.27315515839906    4.66500736697427    6.12040281099322
H         2.18368330547185    5.52748220332764   -2.82799000910315
H         1.11904379531178    6.78506066914896    0.71398186502831
H         1.82748040240554    7.95760240384168   -0.41147013387329
H         0.59105249365508    6.83851258193198   -0.97225370786462
H         3.39649741020650    7.74878915833745    1.30273402859822
H         5.13485480314458    2.90327471664597   -2.20380632909946
H         3.57568623827889    2.75139244280675   -3.02840158916177
H         4.70914006445669    4.00691713508626   -3.53121335930041
H         4.44244715251438    6.26812540294863    5.16316221171524
H         4.44530861234402    0.39094792356650    3.94481286856093
H         3.88204187921710    8.17624870120788    3.70344028785155
H         5.82120938662761    2.59597336083249    7.34217909164661
H         5.40024983051922    0.39795497996109    6.21789338852773

