44
CSD_code = ZOJROI | q = 0 | S = 0 | Stoichiometry = C19H16MoN2O6 | MND = 6
Mo        5.41691310999271    7.86527516056357    7.92365870185882
O         6.82043463002323    7.91483814368257    7.06146395666346
O         4.22015436008580    8.61288606163492    6.62246098930841
O         5.70932871441008    6.48316443895259    9.10173125846843
O         2.55205493171981    6.38691800325337    3.46321369366058
H         3.05871579111793    6.07346759579960    4.24389843629703
O         2.86578655613103    7.22903276907299    8.78105635614506
H         2.09419757026492    6.77672161246000    8.41581219776823
N         4.60479887163734    6.19496971812321    6.83092819387184
N         3.88404811554517    6.56546400005031    5.73523954597054
C         3.75389687859369    7.86819567240405    5.67251724670206
C         3.06776760434354    8.48593084847472    4.53930017637238
C         2.50797692634140    7.72526684536295    3.49442500508789
C         1.87084787197664    8.39069396403003    2.44548769455063
H         1.44585679268616    7.79529613083339    1.65282287356071
C         1.79631611927233    9.76689616167705    2.42631402947558
H         1.30249836383620   10.26132246976820    1.60324851343311
C         2.35464225340800   10.52027542618281    3.45369868655185
H         2.29763330019958   11.59724234238312    3.42930355682493
C         2.98372886125726    9.88256373632416    4.49838687167944
H         3.43330029674262   10.43761869716212    5.31062810693262
C         4.88749403202979    4.93230547345009    6.93533104678009
H         4.52795849577530    4.28648873911275    6.13635856058054
C         5.63752530459919    4.37616876377541    8.00757299131722
C         6.03188884467973    5.21555819678558    9.07259912920706
C         6.77696749843661    4.68483893481141   10.15661261634172
H         7.05910018963185    5.37179863573640   10.94223790152653
C         7.11925204503587    3.36929188062109   10.18492610549387
H         7.68964367490866    2.97102350413234   11.01166138719915
C         6.74275178189294    2.48926335558450    9.14091719293319
C         7.10792458722874    1.13070283957739    9.18885342423030
H         7.67417456584590    0.77989924665526   10.03926844025228
C         6.75920401799556    0.27135635063326    8.18259154083012
H         7.04258040863667   -0.76928236696341    8.22418417218155
C         6.03165543855783    0.75235921432447    7.09044387533646
H         5.75955246193197    0.07666788091070    6.29321758684357
C         5.66152288164651    2.07142695550045    7.01961082655999
H         5.10604732189988    2.40009591549636    6.15632626983990
C         5.99790981013828    2.98336632453688    8.03752785492494
C         2.41395438099543    8.15857949040088    9.75900023932748
H         1.66183666015332    8.83238635254641    9.34044949904807
H         3.29265168676194    8.73273587462960   10.05210174945442
H         1.99992723458959    7.63082018695134   10.62364204137148
O         5.19667875704586    9.07550845260683    9.01026945721661

