42
CSD_code = ZOJSEZ | q = 0 | S = 0 | Stoichiometry = C19H15N2O5V | MND = 5
V         2.41972822483712    1.74401327398662    8.29314470976449
O         3.22141202756286    2.65360304066916    7.36272113609861
O         1.80595676683072    2.88795562540058    9.63576402256258
O        -1.30368469181930    5.60176381033014    8.86116962005617
H        -0.99579990975736    4.83895937407958    8.32415560171280
O         1.93708232454154    0.35006058253894    7.39550464873795
O         3.32938390785385    1.01188894686811    9.41181707478443
N         0.67836106374766    2.46833990649282    7.54677000024674
N         0.16806464185514    3.50276621838561    8.23324368260946
C         0.86290770217923    3.70108937724401    9.33404438569695
C         0.54064317901220    4.82433772868784   10.21500039688265
C        -0.51702421558459    5.71214389464092    9.93888986150919
C        -0.76711713016947    6.75810628998844   10.82973272533892
H        -1.58222974445585    7.42774303055999   10.60493661229475
C         0.00772991905146    6.92709081109545   11.95679743688704
H        -0.20293415562514    7.74338160329121   12.63143770312750
C         1.05731615839145    6.05670625175272   12.22751345340697
H         1.66438716298206    6.19534813249044   13.10866010691706
C         1.31657633194349    5.01816006384893   11.36210450653864
H         2.12908441995311    4.32950358471437   11.54445700318757
C         0.15979105587951    2.18398508395496    6.39324315119553
H        -0.65022134721374    2.82376885675830    6.04544916167868
C         0.58428810129758    1.07843838073514    5.60648829632210
C         1.47978751834381    0.15816091766654    6.19561815849091
C         1.85036103486200   -1.01633241265109    5.48893708052572
H         2.52754706633640   -1.70100923952869    5.97928195531805
C         1.37182504176410   -1.25264604895136    4.23886740370069
H         1.66216026200499   -2.14603105052436    3.70479399760799
C         0.49325275552921   -0.34249482456561    3.60131119810180
C         0.02083623080200   -0.59491193463982    2.29992998616066
H         0.33834000576145   -1.50008953664276    1.80273332539547
C        -0.81769180384412    0.28619203588262    1.67258967939468
H        -1.17611845535002    0.08768024820435    0.67384379161248
C        -1.20626523785980    1.45660348879384    2.33144832452239
H        -1.86022180927738    2.15584180843734    1.83177686852912
C        -0.76299506442352    1.72610104931030    3.60096694567408
H        -1.07139972105528    2.64509866852191    4.07262880667070
C         0.09119467304257    0.83732867077900    4.28028610471047
C         4.26853399536153    0.83187391934596   10.37797168731145
H         5.25537068661297    1.16340674390258   10.02159050260844
H         4.32272544797430   -0.22737480235798   10.67000622075000
H         3.98885558011982    1.42464843050203   11.26497266535795

