55
CSD_code = ZOJSAS | q = 0 | S = 0 | Stoichiometry = C20H25B9Ru | MND = 11
Ru        3.17624565317651    3.19407879724011    1.64005369521573
C         2.83883258211846    1.95206059093930    3.36735531033528
C         0.39914948275091    1.31324193273258    3.41297410512113
C        -0.62893671125369    0.42476969390205    3.16037953189818
C        -0.36064289047249   -0.82675716237219    2.63488082819733
C         0.95615407582785   -1.17975099060737    2.39158552827490
C         1.98113726092452   -0.28911692720935    2.64358986174598
C         1.73252102718724    0.99870984987705    3.13783970393514
C         1.37790577804640    2.49794645497783    0.32896318136189
C         2.56913916923752    1.79187637903523    0.01629155036674
C         3.71670032848208    2.49125493347547   -0.41898449433644
B         4.36268715777212    1.70986321271819    2.82985618876386
B         3.87142607048690    1.72942727681863    4.61189335290443
B         2.74584464357235    3.19407816309898    4.54010931483213
B         5.27662897999236    3.19408157428718    2.56062620889865
B         5.48244354880304    2.32067421518468    4.10420588504045
B         4.50715474325061    3.19407999575419    5.30623528602069
H         0.15669912008839    2.27101534886527    3.83967346947861
H        -1.64751750745056    0.71204942859060    3.38044687794825
H        -1.16224631767612   -1.52146586807363    2.43271986364403
H         1.18813109762057   -2.16252064638612    2.00579270713206
H         2.99735231083221   -0.60244966168555    2.46611927488606
H         0.46811280023272    1.94722080660912    0.53801777712458
H         2.54492796201737    0.70858188564843   -0.03405687316142
H         4.57663817197557    1.94518521822232   -0.78840198672478
H         4.61358386697301    0.72821640071569    2.22299018561931
H         3.62512681786761    0.79164437918115    5.27613078845680
H         1.81740570585634    3.19407824346555    5.26399112036035
H         6.11452073427609    3.19408257699811    1.72696316509451
H         6.44302151245184    1.69046209183732    4.35624004316032
H         4.74794078630678    3.19407982473919    6.45722461385620
C         2.83883057006381    4.43609584119688    3.36735500225385
C         1.73251617917686    5.38944220817373    3.13783703631433
C         0.39914336101648    5.07489780124223    3.41295045757081
C        -0.62894540252571    5.96336678789197    3.16035467148580
C        -0.36065293987482    7.21490146161295    2.63487401564653
C         0.95614469804063    7.56790617891547    2.39159776023237
C         1.98113054975158    6.67727597513987    2.64360463119247
H         2.99734594298209    6.99061637403726    2.46614919309145
H         1.18811995633123    8.55068151228452    2.00581829299398
H        -1.16225818823398    7.90960779294672    2.43271195149850
H        -1.64752704504684    5.67607798547258    3.38040633885297
H         0.15669392997400    4.11711623348963    3.83963187346615
B         4.36268392635244    4.67829780820862    2.82985628268910
C         1.37789512191472    3.89018887527080    0.32895878737958
C         2.56911861855879    4.59627438432462    0.01628422227245
H         0.46809486030375    4.44090271480600    0.53801245143002
C         3.71668788530916    3.89691098909260   -0.41899227944615
B         3.87142254435489    4.65873142929402    4.61189382898916
B         5.48244159559407    4.06748867968837    4.10420634955904
H         4.61357688766233    5.65994531769171    2.22298969659832
H         3.62512052717780    5.59651299215906    5.27613209799043
H         6.44301831404920    4.69770246351136    4.35624107312879
H         4.57661775330213    4.44299171400034   -0.78841217054413
H         2.54489239249114    5.67956846096852   -0.03406763009692

