35
CSD_code = ZOJYOP | q = 0 | S = 0 | Stoichiometry = C14H16Cl2FeN2 | MND = 4
Fe       -0.16228651276470    2.97403187550022   17.16103939085367
Cl        1.19842911630813    3.08918899799548   18.60991866220539
Cl       -1.82119230178613    1.66524043530345   17.01268007407735
N        -0.70662114218753    3.75459661245638   15.49101541680526
N         1.23563930632297    1.81483601947137   15.58755476411787
H         1.40855326907935    0.84610010880588   15.84555356849010
C         0.31681080630974    1.84579646551587   14.44319884345862
H        -0.49541751517368    1.14338795225058   14.65788631011584
H         0.80627266123293    1.55879139854831   13.50288959121901
C        -0.29527214247374    3.21526820544182   14.32831251645132
C        -0.44509738086624    3.87426597819820   13.12305091060413
H        -0.09869048407290    3.41122216840385   12.21239354736191
C        -1.05968830501883    5.11950910214849   13.10219554882449
H        -1.19866456934015    5.65001532460247   12.17363090563268
C        -1.49699254754852    5.66163350828277   14.30156522901553
H        -1.98682813556989    6.62231436951167   14.32656409128567
C        -1.31135458416725    4.95593759346580   15.47826532314381
C        -1.74979777634503    5.46939340311430   16.81230732233677
H        -2.27625439192921    4.67232733312891   17.34681251214258
H        -2.40417581970536    6.32985743116666   16.71023932188495
H        -0.87915504759318    5.75775342676869   17.40809230252904
C         2.52646255422379    2.45381012506151   15.29904586946003
H         3.09197165098426    2.47456812249228   16.23364531116570
H         2.32659911764562    3.48432052494277   14.99329425587156
C         3.30577943808297    1.72924894702586   14.23087486474476
C         3.89816315074676    0.50443956590116   14.51723543940216
H         3.83750328159297    0.10499376266815   15.52012276833554
C         4.57107173717046   -0.19828719616489   13.53435625928435
H         5.03062431068177   -1.14666707066708   13.76991355655984
C         4.65630031076576    0.31414178749168   12.25021918141064
H         5.18117490960254   -0.23419171221732   11.48236425822260
C         4.06963606563112    1.53263290785738   11.95533569699868
H         4.13576524062730    1.93737154227323   10.95608106281883
C         3.39639254167405    2.23503290401270   12.94042865314279
H         2.94343918786115    3.18941807924237   12.70941667002630

