77
CSD_code = ZOJYOO | q = 1 | S = 0 | Stoichiometry = C35H38ClNPRu(1+) | MND = 9
Ru        2.74979261843216    9.09322260955119    7.45384387631160
Cl        1.57588495815011   11.02582373340986    8.08608594771942
P         1.27726019226311    9.05052251233925    5.66759172663247
N         1.42076416735305    7.98543031863834    8.53770063563375
C         4.55467181892546    7.98292301151512    6.55299550400301
H         4.63301492641763    7.22181616826166    5.78433282041780
C         4.74881595004434    9.34764317122123    6.19105927564357
C         4.72996390606527   10.30684585127105    7.21335346360527
H         4.92020618275441   11.34907005769231    6.97752611673080
C         4.60886987968071    9.92721731175123    8.57541308219303
H         4.68668118953724   10.69579233935998    9.33375126768803
C         4.47217246499987    8.58559413711119    8.94169454132856
C         4.40663444505745    7.61528107715629    7.89606632935303
H         4.35679015192611    6.56290691944161    8.16122580000266
C         5.10117772315155    9.70653543244007    4.77970338660464
H         4.99311072598893   10.77329080648342    4.59934519482576
H         4.48669217342634    9.16289626048299    4.06403687890109
H         6.14272176875381    9.43639996484596    4.59826210727553
C         4.51066006313171    8.11414725475411   10.37675775632803
H         3.83167344820318    7.25607556468292   10.47182193310294
C         5.93714036110223    7.63500807824517   10.67968725298763
H         6.23384548319829    6.83089904663556   10.00971205020974
H         5.99389341392669    7.27036589648917   11.70151239410401
H         6.64301033014040    8.45524582872776   10.56742012377812
C         4.08652284376531    9.18107453345942   11.38458239237775
H         3.93873400245888    8.72272652751154   12.35878274666451
H         3.15483754636801    9.65711934417874   11.08628997688193
H         4.85354398944111    9.94459844423947   11.49060200479635
C         1.12610968280356    6.73625908223957    8.16915527754206
H         1.61978896598389    6.37035670696591    7.27664055805307
C         0.23169063023321    5.91805329121486    8.83525249615155
C        -0.39612407711011    6.42180016538323    9.98477674058561
C        -0.05198689983746    7.70678155124776   10.38282384469404
H        -0.49295937556746    8.14096833438126   11.26600382816414
C         0.84535047241250    8.45417547559860    9.64465123850076
H         1.08026452494040    9.47264183368218    9.92565555138314
C        -0.06456701969625    4.54735181358258    8.32641852111632
H         0.50990446460501    4.32926613436844    7.43106520758711
H        -1.12321139007046    4.45948922860751    8.08852603193108
H         0.16594535312214    3.79917483867629    9.08313588188258
C        -1.39226639114659    5.61335637359375   10.73806279489801
H        -1.76979876693978    6.16133882971845   11.59597178655967
H        -0.94615477940260    4.68206551606312   11.08432422917304
H        -2.22870196188613    5.35190246666607   10.09146927465585
C         0.80775684798060   10.67398639746503    5.00712256659169
C         1.76633522052537   11.68307307635330    4.99124807588282
H         2.74504234764304   11.48779051518068    5.41174623477018
C         1.45911157245436   12.92432738304696    4.46829451694561
H         2.20071082343864   13.70882574490409    4.46521151821950
C         0.19317986372154   13.16303426809856    3.95644403222600
H        -0.05039394927813   14.13432440343280    3.55424107505941
C        -0.76118554895540   12.15890712944839    3.96482035635158
H        -1.74681111389699   12.34698642980403    3.56703217407275
C        -0.46001089313504   10.91297337142342    4.48619703376633
H        -1.20564742446190   10.13081451989045    4.49451245342930
C        -0.32548023778263    8.27149846357908    6.03862260512884
C        -1.06908868018433    8.86691055730723    7.05914834255588
H        -0.69117408520764    9.76586863324289    7.53093835574043
C        -2.27122942745650    8.31199354099384    7.45159965365327
H        -2.84603453673855    8.77567141113651    8.23870084015979
C        -2.73993952245066    7.16317979618330    6.83095898778260
H        -3.68007082531403    6.72996683550454    7.13750600399117
C        -2.01145231467515    6.58006989559885    5.80821690753674
H        -2.38460829640964    5.69591183063424    5.31346674299387
C        -0.80380673437412    7.12869941043644    5.40909618500237
H        -0.24543939020109    6.67406837055183    4.60373012892330
C         1.89438738380289    8.17457581240650    4.19429013630134
C         2.30898980017773    6.84892458739110    4.31670029428974
H         2.24896217176815    6.35891606799291    5.27960062565170
C         2.78678881409375    6.15723368309860    3.21975890047522
H         3.09751959056578    5.12822812511421    3.32360229659812
C         2.86613337112828    6.78589281326370    1.98644466092651
H         3.24150489842494    6.24776299748620    1.13000630565350
C         2.46269208624231    8.10428053879018    1.85739076688049
H         2.52326069498059    8.59641419678962    0.89883271100863
C         1.97878642168593    8.79917746178111    2.95338197315579
H         1.66484091479461    9.82665788779614    2.84374668926919

