70
CSD_code = ZOJZEF | q = 0 | S = 0 | Stoichiometry = C33H31ClN2O2Ru | MND = 9
Ru        4.30634875704250    3.14397332903323    5.08635804493398
Cl        2.02336960280999    3.06552048054018    5.54649039203844
N         3.21514876592465   -0.76667578973456    6.21120057005322
C         3.02694131460934   -1.67123054831872    5.16219924717502
C         3.51980568497425   -1.42460769426907    3.88504466510637
H         4.06804176949162   -0.51906101437372    3.68587140351030
C         3.29693192066014   -2.34392861593463    2.87618337620593
H         3.67736390577725   -2.14496605519098    1.88475213597911
C         2.59911014721379   -3.51258355913941    3.12762777531471
H         2.43134596626156   -4.22630854880325    2.33479742012775
C         2.11868029525682   -3.76090333797858    4.40332210434462
H         1.57453698338257   -4.67106691816861    4.60812256890834
C         2.32726621959363   -2.84861687650461    5.41853070963862
H         1.95692346639065   -3.02201044241461    6.41547686039509
N         2.79747069807733   -1.09710476659651    7.46540773401042
C         3.06009238304422   -0.10019343826953    8.25854380903426
C         2.64732406602666   -0.15006913141622    9.68513232693800
H         1.93239578135730   -0.95869482489942    9.81007184980951
H         2.19241381478238    0.79290207205600    9.97944661716884
H         3.50043784921976   -0.33470815043751   10.33527143720672
C         3.67951746755710    0.97124746968009    7.53359921080138
C         3.72163080097307    0.49977561132282    6.18064808262137
O         4.17440199090075    1.05351366032409    5.13588653085943
C         4.16070448281113    2.22919622474663    7.93745040378187
O         4.49441688938419    3.15569367172940    7.15402545228233
C         4.33238733440008    2.52606877955345    9.38452064674114
C         5.12083140243289    1.72151535911924   10.19976739918295
H         5.61659297850880    0.85875428274622    9.77940764165509
C         5.28591964160508    2.04090335107199   11.53289869443262
H         5.91454832905112    1.42341384050450   12.15787111513325
C         4.67180159804546    3.16728800035962   12.07862715614596
C         3.90136990789210    3.97878530107579   11.24793822771196
H         3.41213600498237    4.84973654344156   11.65846706182564
C         3.74094851719466    3.66890786605818    9.91211059751599
H         3.14030814514213    4.29312736268799    9.26731904854938
C         4.83920292659100    3.49458383374575   13.50219083453308
C         5.05950000537058    4.80855561940873   13.90867726389376
H         5.12689010342271    5.59104416627910   13.16681729980857
C         5.21869540171329    5.11288372258609   15.24773837314530
H         5.39553529821215    6.13528762719433   15.54872062457393
C         5.15261598169324    4.11165014067112   16.20223728792695
H         5.27391423667051    4.35082022251908   17.24834526398134
C         4.92970441981020    2.80249391408312   15.80930120590015
H         4.87268922087342    2.01832540913271   16.55012404957140
C         4.77798077834411    2.49473767922022   14.47015656837838
H         4.58754216405513    1.47453000651679   14.16991949697687
C         4.67480955756377    3.36994477569413    2.84358493958186
C         5.90501963748424    3.03425921254944    3.47182046987516
H         6.47598749313895    2.19157492005232    3.09494506371705
C         6.42537602450861    3.80320487087679    4.52101660092876
H         7.39179034142782    3.56007908502320    4.94643520671537
C         5.71960552562316    4.94393771080043    4.99447248758530
C         4.51208692721290    5.30211559037838    4.36651345628469
H         3.99541491691018    6.20855825707360    4.66205565854742
C         3.98570250731760    4.50470549300640    3.31870364115380
H         3.06367208600048    4.81488716406042    2.83957244192752
C         4.14386240102199    2.54961458613716    1.69104370074701
H         4.80726095028351    1.68719721636576    1.55701759441852
C         4.15476314243033    3.37066857182555    0.39802828454656
H         3.81617028570889    2.75592094073804   -0.43230387885070
H         5.15851986506296    3.72892256893956    0.17677674387695
H         3.49211579454125    4.22909540539093    0.48008640842729
C         2.73888657899316    2.02786633216760    2.00390991595817
H         2.72122842066577    1.56450214256083    2.99031468215925
H         2.43799337290515    1.28820205112390    1.26606046740275
H         2.01104858146839    2.83502923074736    1.99889334584886
C         6.28123254229991    5.75856647478426    6.12020404279589
H         5.82449083956608    6.74492826081934    6.15546832275152
H         7.36009918450474    5.86471774141242    6.01906313611568
H         6.07752760380742    5.25529556254367    7.06720068168255

