47
CSD_code = ZOKJIU | q = 0 | S = 0 | Stoichiometry = C21H19N2O4V | MND = 5
V         0.14872586152769    1.78284840851815    8.64294840808249
N         0.22406271844877   -0.17211657720762    9.14151587955243
N        -0.55377279555656   -0.53488044714914   10.17503438717195
O         0.41345294896120    1.11758075133830    7.06548664088352
O        -1.11111799938310    1.62978759130382   10.00014294820282
O        -0.59947309026384    3.15971365440380    8.21255899505782
O         1.51096036053083    2.02330684303430    9.29559784333059
C         1.81520861054967   -0.73693559896325    7.47341558013584
C         1.36695820436084    0.33200423176551    6.66674886663242
C         1.90769276693771    0.50724911699667    5.36409106589142
H         1.49521350550730    1.30194519798993    4.75893366144190
C         2.90287157332823   -0.29758265708301    4.90880338057768
H         3.29424571270730   -0.17223333397676    3.90951920483393
C         3.48433685077427   -1.28044026805691    5.74618708974837
C         4.59408008108066   -2.02857465966047    5.31216341733156
H         4.95613755646438   -1.87684888532083    4.30545644072607
C         5.22202345156994   -2.90876086714518    6.15162379386362
H         6.07540719715293   -3.47726227780608    5.81356921838459
C         4.77618313510055   -3.03763225382826    7.47039194272910
H         5.30909546394530   -3.68476005048649    8.15150515761361
C         3.68051222004636   -2.34017284691994    7.91118826190368
H         3.39480484438756   -2.41330139065369    8.94649024400498
C         2.96837377295243   -1.47892161431962    7.05401483570746
C         1.00940971389177   -1.07325639010312    8.61729808984512
C         0.91335448854851   -2.47749049289594    9.14246958281337
H         1.41417546791516   -2.55536876872534   10.10658666849964
H         1.33227041395423   -3.19597492787534    8.44526802529175
H        -0.13948581407634   -2.69914544278820    9.31807622438630
C        -1.20223817805988    0.50847811643728   10.62105558627920
C        -2.04593944373436    0.39003131264030   11.81543559455220
C        -2.68727366954431    1.51861974480281   12.32261125295603
H        -2.54335920818577    2.46803449097344   11.82718942194699
C        -3.48235818403651    1.42025537904274   13.44671311786340
H        -3.97324754972224    2.30158033543567   13.83439057031275
C        -3.65848105813621    0.20027586834990   14.09038253122261
C        -3.01433116812508   -0.92319110939023   13.57880066198147
H        -3.14254781309408   -1.87602172897346   14.07234048605496
C        -2.21572499456765   -0.83593414174515   12.45732119181876
H        -1.71165422836453   -1.70320747379705   12.06214843172286
C        -4.53874802099476    0.08933682106019   15.29639083087340
H        -5.54083387683766   -0.21977952571807   14.99683219052966
H        -4.61950676612729    1.04461070127488   15.80907531643109
H        -4.15322412673636   -0.65444874595653   15.98996191788172
C        -1.26844711754270    4.33674504558533    8.32149006114988
H        -1.89651092347514    4.51182671094131    7.43536481515291
H        -0.56625335605425    5.17506540784402    8.44210222076139
H        -1.92232753802792    4.28844674680374    9.20920794586239

