37
CSD_code = ZOKLIU | q = 0 | S = 0 | Stoichiometry = C15H15Br3N3Re | MND = 6
Re        8.99222561337361    1.16357176611187   11.61569428731561
Br       10.14664204561071   -0.20766908635801   13.33091299431988
Br        8.30127276111480   -0.89087170575355   10.31182107971718
Br        9.60358688869382    3.31448789817638   12.79709750108758
N        10.80113434992729    1.28428471213379   10.48208812158175
N         7.17535728527764    1.05637324242173   12.73614265563208
N         7.99467021880489    2.34707723541043   10.13742608453215
C         7.17190545486502    1.23414776546537   14.06115505280355
H         8.12220745123969    1.43573751758699   14.53546122480278
C         6.50892715455813    4.13058077399844    9.56339323194179
H         5.86515351976805    4.92276852868255    9.91004470198849
C         6.67862519274668    3.87951602286142    8.21015086268775
H         6.16929572182226    4.47101794241544    7.46581766281338
C         7.52516779115563    2.84335055447675    7.84589970506712
H         7.69851757487510    2.59914621813032    6.81032594995421
C         7.17942132324059    3.35055118436689   10.48381170578944
H         7.06379268407290    3.54600726192305   11.54128128988895
C         6.00232112191655    0.80460022883469   12.14594452455346
H         6.01249249898464    0.64775814748862   11.07559552485451
C        11.21959372102335    2.43818385430432    9.95185273716129
H        10.60019258944373    3.30953681846311   10.11628607950667
C        11.56827042185808    0.20593441711882   10.29254013211808
H        11.22575976142645   -0.72587489325678   10.72070419562014
C        12.39299324079074    2.55830859491025    9.23435615536748
H        12.67587602771471    3.52066634155091    8.83882811164569
C         8.15551427036143    2.10907218531985    8.83011623960834
H         8.80849482318566    1.29115201085627    8.55726595599933
C         4.81053162045322    0.72308105689775   12.83802564940715
H         3.89953233936748    0.51294919231230   12.30112006618528
C        12.75649515911836    0.23947839663525    9.58886002533077
H        13.33077645480086   -0.66579032990225    9.47795751644146
C         6.02510746114154    1.16797895692724   14.82838761738034
H         6.09255880209147    1.31714135215142   15.89372887422763
C        13.18803233844294    1.43856725533719    9.04566370657293
H        14.11398761023790    1.50064343932801    8.49558479248297
C         4.81220621374672    0.90704841760271   14.21197512238055
H         3.89836049274738    0.84558672507065   14.78218286123278

