27
CSD_code = ZOKLAM | q = -1 | S = 0 | Stoichiometry = C10H10Br4N2Re(1-) | MND = 6
Re        2.35411878429074    4.89935055233166    7.68940864698100
Br        2.03198974103750    4.24268729698744   10.11198687907514
Br        0.92138482258084    6.96452345458121    7.99907512860621
N         0.64170675780161    3.79075453380103    7.16024506648628
C         0.63942632167903    2.96980745846277    6.10175051717343
H         1.55648193338215    2.89582323658354    5.53285240336932
C        -0.46145561326736    2.23275232127603    5.71828333887380
H        -0.39032558972470    1.59169922007584    4.85309846836479
C        -1.63443541661209    2.33067769302638    6.45036766952402
H        -2.51433294337426    1.76758646693563    6.17523380493352
C        -1.63779722250419    3.17700868538368    7.54813470905136
H        -2.51750536663222    3.29881641187899    8.16116517950463
C        -0.49396220904860    3.87955262265609    7.86500103171399
H        -0.49288993206284    4.54071067557359    8.72114938029648
Br        2.67814133342122    5.55376441034812    5.26558946238491
Br        3.78693670653342    2.83423606073427    7.37952618420104
N         4.06751435899537    6.00697294287587    8.21758090805531
C         4.06980801647488    6.82789391322597    9.27609270859434
H         3.15274882983906    6.90187194182228    9.84498931627179
C         5.17070190823075    7.56491365303422    9.65958970508511
H         5.09957855954561    8.20596062644719   10.52478210590354
C         6.34368307975226    7.46698288607961    8.92750852779763
H         7.22359568129644    8.03003903013419    9.20266618496858
C         6.34703728303302    6.62067038714475    7.82972619927731
H         7.22673777500922    6.49887213987548    7.21668564431090
C         5.20319060209815    5.91815889352855    7.51283304891124
H         5.20212179822494    5.25701248519550    6.65667778028420

