43
CSD_code = ZOKLUG | q = 1 | S = 0 | Stoichiometry = C17H20MnN2O3(1+) | MND = 8
Mn        0.17412112750576    0.55470063425201    0.04512792268767
C         1.64481513400131    2.08291340143255   -0.29736157351765
C         0.59279623751628    2.35585632948498   -1.24841285744196
C         0.60064478667339    2.52318533757608   -2.64587797812336
C        -0.56395269078093    2.90074163802584   -3.26373794250711
C        -1.74397355630813    3.12940999177444   -2.53434125572813
C        -1.78445089342414    2.98671790370009   -1.17117135871249
C        -0.61012844054527    2.59099155638530   -0.50320031944941
C        -0.28735498421538    2.47006941677903    0.89835394913719
C         1.12289093222168    2.31427799549980    1.01238156643221
N         1.88800031805006    2.48780944360359    2.17370801820170
C         1.12535678858314    2.65614870969161    3.40264901186800
H         1.81184448978320    2.83090937210163    4.22832260259575
H         0.51695181857023    1.77406315753275    3.63147046808476
H         0.47667193123668    3.52492616331496    3.31095225240608
C         3.03749813692998    1.61056194949795    2.34546056055545
H         3.24685552515097    1.07991326727585    1.41241882233106
H         2.81857976757265    0.84431922333916    3.10051725396001
C         4.29345991410508    2.36057809915683    2.80120820383853
H         4.08933868016674    2.95388924002772    3.69388671659434
H         5.06087881671248    1.62262041388124    3.04095486267651
N         4.82309645341452    3.27450768523641    1.75139570722606
C         6.25971688380818    3.54717984359922    1.93782938633404
H         6.42195831790453    4.00251885334584    2.91343818007290
H         6.61655365983461    4.23107748287598    1.16964627934310
H         6.83583751097355    2.62553706156875    1.87909514451509
C         4.05446613682644    4.53199893713944    1.68952635504550
H         2.99163910981386    4.30326305593014    1.61293996941514
H         4.36446759963628    5.12361902377197    0.83036481044698
H         4.22947034780690    5.11013276813522    2.59510517098435
C        -1.49778646117052   -0.09902602694609    0.12240099257440
O        -2.58442686707730   -0.44335452081659    0.15910148088332
C         0.75873990619525   -0.50516727106835    1.35141136970211
O         1.15830071864694   -1.14508435552427    2.22490109303813
C         0.70843282759907   -0.55303279374920   -1.25982962875205
O         1.06783330646096   -1.19978680581059   -2.13142103090361
H         2.69503081068364    2.10161940531182   -0.56881843343928
H        -2.68680389537961    3.18614914245636   -0.61131691234221
H        -0.57812023402699    3.04194740262250   -4.33329606251685
H        -0.94955567767409    2.79525860689968    1.68790714701354
H        -2.63079781191918    3.43916695523087   -3.06488719809876
H         1.50995716347471    2.36768912783461   -3.20946097716787
H         4.70344635466583    2.79418317762132    0.85125823073531

