44
CSD_code = ZOKRUO | q = 0 | S = 0 | Stoichiometry = C23H13O5PSW | MND = 6
C        -5.32976204065966    4.51511307447687   -7.04618856822325
C        -6.04819484035458    5.08027734786402   -4.34763920833474
C        -3.91249354189714    3.32731371758494   -4.92163869951115
C        -5.66244765837169    1.76504596162176   -6.55405591308674
C        -7.77242354843111    3.54726115206980   -5.94982727035982
C        -5.60647755270673    0.64031334722373   -2.95140377032556
C        -4.54829481421715    0.06189462146791   -3.59684611406534
H        -4.12655102295878    0.46112194907331   -4.50462190204862
C        -4.07827476562856   -1.09780542921551   -2.94808207869783
H        -3.25363276450716   -1.68955846178679   -3.30326307569393
C        -4.78266592439191   -1.38651111236663   -1.82324203388990
H        -4.64383349411845   -2.20229360527134   -1.14173594266322
C        -8.09813996028745    2.02753080263349   -2.65336532495463
C        -7.23695267739150    2.78388351423600   -1.96088964956351
C        -9.39122263875871    1.45710508489456   -2.83376358326525
C        -9.66273544498699    0.78275373782037   -4.02715675808764
H        -8.88041314891063    0.71142088449256   -4.77297742985355
C       -10.90646237815914    0.22749690812448   -4.24556269208518
H       -11.11304327552346   -0.28655424748627   -5.17230550475972
C       -11.88938383365686    0.32780711866395   -3.27227170036238
H       -12.86227389959067   -0.10877422159346   -3.44130691671681
C       -11.62379306638731    0.98418482235855   -2.07979709626222
H       -12.38987463471634    1.05473347631804   -1.32173522424842
C       -10.38434529686550    1.54938828289102   -1.85550098849992
H       -10.17150638443975    2.05358096659527   -0.92526281278525
C        -6.93621134079587    3.67894920672581   -0.89443499978004
C        -7.90862479486898    4.11218163765582    0.01034102061354
H        -8.92381663667703    3.75916838192225   -0.08753651475537
C        -7.56795396597533    4.99922292009767    1.01186285585297
H        -8.32156185400249    5.33569283298044    1.70856599209145
C        -6.26563906778171    5.46234544173036    1.12521974119645
H        -6.00780992025998    6.15689693593106    1.91059562613824
C        -5.29558887263227    5.03884344672191    0.22904297160431
H        -4.28311175740058    5.40400244044266    0.31477678759103
C        -5.62700045646845    4.15351521609248   -0.77538893814452
H        -4.88485054353072    3.81394856496975   -1.48798924443411
O        -5.03803729393028    5.13784553368520   -7.95846582754061
O        -6.19209118803419    6.00209265129545   -3.69056267527506
O        -2.81762480601276    3.28782386188073   -4.60055573714936
O        -5.57767943623995    0.82113468953533   -7.19056160502196
O        -8.88513069138431    3.61036860304735   -6.19466045818731
P        -6.48066115083936    2.12347965694661   -3.47355465755675
S        -6.03834356110189   -0.25331624747759   -1.52248088385373
W        -5.83516405410425    3.43297453300251   -5.46307319507550

