61
CSD_code = ZOKROI | q = 0 | S = 0 | Stoichiometry = C29H24NO5PW | MND = 6
C         6.67064315702009   15.66973769688330    2.63600288799020
C         4.78053391616979   13.64216239493922    1.96458149681163
C         7.32726851857764   14.27682737857677    4.98132190341940
C         4.62622894595400   14.89917395222028    4.45957912396469
C         7.48721291820544   12.99213875032810    2.41831013652841
C         3.68073921305544   11.08385227095530    4.02250822776225
C         3.64131667961260   11.65298730421662    5.23399195875140
C         2.92414983960861   12.03166777029472    6.40611338508946
C         3.57206762007797   12.83316777944161    7.35024114365690
H         4.59984975060569   13.12158691283349    7.16689069357061
C         2.90719977663397   13.25102904261215    8.48423977176115
H         3.41089986914770   13.87715393425380    9.20558683237644
C         1.59154860503788   12.86705144782066    8.69656848169348
H         1.06991675775619   13.19429910319197    9.58355920834787
C         0.94477880975567   12.06139751602148    7.77163683163349
H        -0.07878777704413   11.76076724972187    7.94165662712853
C         1.60108153818474   11.64324538411559    6.63123803832086
H         1.09957266580796   11.01345753932631    5.91207481360541
C         3.03751951325748   10.42891746199409    2.93237366488221
C         1.66285375237744   10.17974788496139    2.91441589193351
H         1.05409621718183   10.48269504895440    3.75273529063197
C         1.08862163533162    9.56469954705978    1.81985222989993
H         0.02481553026925    9.37738463614257    1.80739659678836
C         1.86919153650731    9.19075302972082    0.73646786807697
H         1.41228083834901    8.71196257164765   -0.11672123482107
C         3.23418235906682    9.43607659672927    0.74555294010035
H         3.84074471591827    9.14977796851082   -0.10078483097652
C         3.81584531596382   10.05136172399646    1.83436165771523
H         4.87926366061171   10.25545240321544    1.85917133520396
C         6.33206407489267   10.52696789235526    5.09449748027378
C         5.84379021076911    9.31316464337460    5.57217750692293
H         4.77728215669566    9.13042960133822    5.57979932581766
C         6.70055140514229    8.33717892711155    6.02392092037628
H         6.27263586150289    7.40913728214793    6.36605642902092
C         8.09534770000274    8.52597334271219    6.02882000450456
C         8.57185715646382    9.75955556636438    5.55159894406294
H         9.62739981889279    9.97521952555662    5.54360274908970
C         7.70963293867918   10.72875223441359    5.09298027239982
H         8.10667234142173   11.66988611212814    4.72944589334650
C         8.47224520650684    6.36431940771738    7.14481465924818
H         7.59019025477402    6.60724640139150    7.74228437885975
H         9.25122245954217    6.03574737991190    7.83866736962886
C         8.15378088207746    5.22721346320732    6.17141409718064
H         7.80512825378014    4.35442767051241    6.71735811107495
H         9.04177337979405    4.95126583460541    5.60752249181288
H         7.38509643080693    5.53057544354082    5.46559015774430
C        10.37920062083126    7.65138417427251    6.30302200347812
H        10.60133934599324    8.16154563476734    5.36281481186235
H        10.77799762943931    6.63619209480025    6.22133057392818
C        11.06404947772552    8.36923447082367    7.46778277165087
H        12.13692469475620    8.41369529855236    7.30002329373266
H        10.88067960509581    7.83998574469819    8.40006857994155
H        10.68269989590797    9.38145346264331    7.57203086554401
N         8.94665275833353    7.55393752945606    6.47436941097335
O         7.01093272761730   16.65488409311522    2.16504630777873
O         4.01126168261310   13.44633695740303    1.14352504537826
O         8.02290277103968   14.48755813217623    5.86324607571899
O         3.77453851368140   15.41002614993214    5.02357924592612
O         8.27622030231817   12.44893041138715    1.79539040514775
P         5.27216475825769   11.84572882078495    4.45582791922253
W         6.07772880565391   13.96381399611518    3.45196892649748

