56
CSD_code = ZOKSAV | q = 0 | S = 0 | Stoichiometry = C27H22NO4PW | MND = 6
C        18.83738220021714    8.86940238117267    3.76683700368000
C        17.53061631576002    9.93888076995942    1.59320077109467
C        16.30318677432054    7.93239926647630    3.01770585971929
C        17.85523837173290   11.49818847611539    3.84806448845180
C        13.86879280808135   11.92958151298119    2.63535831658279
C        13.36852486095239   10.69862240141136    2.45047868261109
C        17.45918080434144   10.12282774195144    6.59808497182603
H        18.43271336776055    9.74721735272790    6.28192021468867
H        17.34491846505624    9.91936815164169    7.66977872760061
H        17.43010955788829   11.20266670829874    6.44964769975054
C        16.38165213058831    8.04892837697753    6.09825356756153
H        17.32405724131739    7.59642048718621    5.78776388464380
H        15.56353478548496    7.57354981163799    5.55600310827490
H        16.24109455463807    7.85599768857316    7.16936481635277
C        14.28323664708487   10.64302109819070    5.20966450726155
C        15.11518706996873   10.05863223392359    6.16929379105718
C        14.67448864971210   10.02849281229551    7.48832143708902
H        15.28153696229686    9.57870664665984    8.26049255811262
C        13.45477667765796   10.56933799199177    7.84879785984759
H        13.14456090088234   10.53071560806723    8.88293018884424
C        12.62719400750237   11.15992585914040    6.90213795062388
C        13.05915431254526   11.18434094107293    5.58618174833546
H        12.43375225466080   11.63603372073317    4.82733432520330
C        12.44064674876411    9.84326253160822    1.78696399293382
C        12.39389137408460    8.49276989187094    2.14197750628596
H        13.05967002868855    8.13562055965642    2.91644872815641
C        11.51698668748130    7.63542934084699    1.50995864496379
H        11.48785197749071    6.59217469358831    1.78716150975265
C        10.67912487555769    8.11275886860925    0.51342784575678
H         9.99465426472599    7.44177326686625    0.01625614402699
C        10.72507272626190    9.44983063561988    0.14803989086745
H        10.07800456301121    9.81662486643187   -0.63526321983439
C        11.59750845409490   10.31532792132360    0.77703988054753
H        11.64940793153545   11.35225189949622    0.48108583193301
C        13.79658161712223   13.32995145281489    2.37147580135432
C        12.63956597254243   13.92116302879170    1.85696813657267
H        11.76756150242629   13.31239388870443    1.66824913707288
C        12.61086777540243   15.27959241252595    1.61132214157053
H        11.71440850313319   15.73381769246173    1.21502339821259
C        13.72709727569482   16.06115415292074    1.86846901966541
H        13.69942766807285   17.12184394282510    1.66823047403650
C        14.87614070181669   15.48251226510747    2.38621979818201
H        15.74417270062026   16.09166390468022    2.58944611557356
C        14.91010041842948   14.12774292765534    2.64578059582187
H        15.79831458685890   13.66051763982814    3.04867008040032
C        11.30592306872834   11.75500144685684    7.27844593651425
H        11.12392185699186   11.65821690711678    8.34553237131883
H        10.50030452876527   11.25741037819170    6.74015973241930
H        11.27881920496820   12.81114032708473    7.01369091602769
N        16.40315208775858    9.48678155978169    5.79803972156249
O        19.86408068662871    8.38044263360013    3.92838732091050
O        17.78244643955483   10.08529366478490    0.48341219655781
O        15.87406207120798    6.93540776258484    2.65264306645718
O        18.31378741142667   12.54277571471270    3.95454183560832
P        14.86173536928934   10.66768585285236    3.48305546083674
W        17.07561920041971    9.70400792901832    3.49042350872326

