73
CSD_code = ZOLDIN | q = 0 | S = 0 | Stoichiometry = C32H38Si2Ti | MND = 12
Ti        8.90162269853201    7.30714529299687    9.69396757209487
Si        7.41281734022914    4.04000757447316    9.41558944130507
Si        7.43361652395316   10.59003267151285    9.88265082001208
C         7.36625900693256    5.92528303729975    9.54653013788101
C         6.19220473633148    6.59028686224331    9.56097257441638
C         6.19692308138815    8.05302984095231    9.66099519275668
C         7.37489919880629    8.70534553925558    9.74859935414192
C         9.14506453641167    3.39676989029522    8.88646590378021
C         6.21261253069152    3.32137199137702    8.10356122825705
C         7.00419454510886    3.17315934240597   11.08125615210250
C         6.16533438402220   11.32207304662071   11.12108824660307
C         7.13359005010583   11.46051720116917    8.19586874998354
C         9.13843787985494   11.21428667330632   10.51382694993401
C         8.55810435466053    6.65935908902722   11.93817288904709
C         9.65326913018444    5.88693515264834   11.49689837211842
C        10.70101520327048    6.76008366052850   11.17350146236716
C        10.26548409712725    8.07975462382301   11.41291652800249
C         8.94266319554992    8.01958764961880   11.90150856535869
C         8.69977053458093    7.95742047896072    7.43235824455836
C         9.77428070717622    8.71867982648568    7.93880151852858
C        10.79133331428137    7.83482655251579    8.32510288700509
C        10.35719508283144    6.51955196181648    8.06005193607669
C         9.06700486604940    6.59329074935547    7.49241700527009
C         4.85653359647825    5.94988079110907    9.47771246744251
C         4.13448193985116    5.98655290333458    8.29010536384117
C         2.87777693196453    5.41613211418252    8.21644099536831
C         2.32361071051910    4.80822689886577    9.33065393970649
C         3.03197745999074    4.77601176466267   10.51947447276162
C         4.29022292969405    5.34554182645191   10.59296856583020
C         4.86533722224574    8.70721630350550    9.65959183254032
C         4.37664914805236    9.31467359792640    8.50978988591575
C         3.12134662944065    9.89522383517111    8.50214734619050
C         2.33843709446876    9.87158063574720    9.64348079205369
C         2.81529785999867    9.26135226179346   10.79165826932946
C         4.06895188411001    8.67953911443984   10.79892283180749
H         9.20724431207201    2.32705498459017    9.06357897072321
H         9.95637698933353    3.86283734020893    9.43685526686516
H         9.32762444984894    3.55429387456323    7.82803906361971
H         5.19234721060829    3.29799509379496    8.46989235140598
H         6.49368103765928    2.30599645011991    7.84092360957167
H         6.21497194134254    3.90946812524365    7.19086632988631
H         5.93221493125647    3.13790283549170   11.24383358018055
H         7.45094230985104    3.67721605673907   11.93293679559639
H         7.36661816627177    2.14952613783289   11.07948332717886
H         6.11218329278372   10.73838481890981   12.03509784483291
H         5.16773330480379   11.34988271865416   10.69712330894354
H         6.43748249666156   12.33702564149002   11.39466771432532
H         7.61929186147192   10.94773140825641    7.37116174122610
H         7.51182940779264   12.47818546066374    8.21692626287723
H         6.07315586387148   11.51257929570037    7.97319667746811
H         9.25347706753630   11.06061363398515   11.58227435316320
H         9.22563242486989   12.28200267169322   10.33538992712432
H         9.97564205632506   10.73435055997949   10.01674679341738
H         7.64090764774233    6.27739442415163   12.36832407560479
H         9.70647696985602    4.80843185879433   11.51705004045150
H        11.70696577704818    6.46488245382990   10.90121184275690
H        10.89002260631434    8.96287499039050   11.38183301464062
H         8.37828707531681    8.84061221203664   12.32257378876185
H         7.81415629897285    8.34845545895885    6.94766245329740
H         9.83985321169075    9.79656488284622    7.92174867285346
H        11.78209694575734    8.11975298055407    8.65742648179830
H        10.96935540451037    5.62992790529080    8.12905656958046
H         8.52036871037871    5.77803071235417    7.03809674497859
H         4.56898657034068    6.46082998348506    7.42174611615069
H         2.32617060600796    5.44582475195408    7.28776462771121
H         1.34060237497341    4.36395728608669    9.27308636858492
H         2.59980013083884    4.30833996035931   11.39286609778929
H         4.84077847480416    5.33388584580512   11.52269663509188
H         4.98539551676822    9.31994594278110    7.61702412499581
H         2.74979621556284   10.36481284384281    7.60227368680279
H         1.35760408781417   10.32426560515105    9.63753006874151
H         2.20561835177531    9.23840150899391   11.68349802968601
H         4.44308749427162    8.20303052853879   11.69378814692570

