66
CSD_code = ZOLHIT | q = 0 | S = 0 | Stoichiometry = C31H27Br2NNiP2S2 | MND = 4
C         0.92297902401262    9.95388603432437    4.78380507112436
C         0.99426495707185    9.49005556755981    6.09207400627697
H         1.31743385710825    8.47502817974440    6.29045839464318
C         0.65802325027859   10.32891580690819    7.13834221856463
H         0.70561833358220    9.96540976071318    8.15466357302390
C         0.27329752583775   11.63496994130571    6.88290518854786
H         0.01664131148480   12.28885721743702    7.70294402243734
C         0.23099737713439   12.10811491750983    5.58027472076235
H        -0.05218211854744   13.13098501635704    5.38400852290233
C         0.55916072052848   11.27458157819657    4.52819512929828
H         0.54766723780930   11.63859017322513    3.50927523482133
C         0.06814170422675    9.08949342309794    2.22073111917153
C        -1.23318193640485    9.15928416361002    2.70858523309468
H        -1.40951892906552    9.22017530056387    3.77355488263454
C        -2.29717820662871    9.15311698397046    1.82763595482039
H        -3.30656006705444    9.20328392273052    2.20854283742599
C        -2.06969672127548    9.08520993684411    0.46183598855652
H        -2.90487326373624    9.08394217178786   -0.22283427082189
C        -0.77510222158603    9.03316892389536   -0.02596591658461
H        -0.59532696015020    8.99752180575565   -1.08966434191594
C         0.29470879970211    9.03149944733162    0.85146554681273
H         1.30744471767430    9.01452632453679    0.46865258970437
C         2.15084200839427    5.28377103677694    5.51190164501266
C         1.36101957466705    4.19441601139476    5.16264742230894
H         1.11043592903502    4.01924158468536    4.12527250290574
C         0.90535707865959    3.34119941060312    6.14973941032363
H         0.28895511898915    2.49563263352796    5.88423076712634
C         1.23788660881543    3.57104556234274    7.47609961171278
H         0.87791272963085    2.90203014322063    8.24312286914535
C         2.03194509532874    4.65237612223794    7.82092732641170
H         2.29512592605473    4.82685687873238    8.85340645161063
C         2.48814417238408    5.51300842762648    6.83861143115880
H         3.11408920273141    6.35897288708725    7.09143802880476
C         3.17031468121942    5.58483338783551    2.76571082046722
C         3.09463178225395    6.21010257356104    1.52626159277158
H         2.59989417452764    7.17967778618483    1.42519599042421
C         3.64496347642966    5.60488302349765    0.41204549906525
H         3.59905232723830    6.09967868149627   -0.54542292756570
C         4.28037752070801    4.38069110244622    0.54018854185275
H         4.72279301566181    3.91411332173363   -0.32644079278917
C         4.37043778991856    3.76340391089997    1.77815413712742
H         4.87945442587172    2.81667270457019    1.87638414808702
C         3.82575254134579    4.36648022436061    2.89684778600037
H         3.90922893386902    3.90515639523371    3.87222990737484
C        -0.03173557993499    6.62016353577888    3.80584478980538
C        -0.36806680822035    5.97663805396102    2.62331296378437
H         0.32222362788634    5.98724698485483    1.79157259096740
C        -1.58239262182043    5.32968117137040    2.49629796315159
H        -1.81603869510500    4.84356364607968    1.56332049516653
C        -2.47497492304959    5.31831453567144    3.55990007061388
C        -2.12924630530912    5.95120910143046    4.75340127375900
H        -2.82424951840140    5.93194789421685    5.57856239283743
C        -0.92002707446674    6.59821118463645    4.87603923023015
H        -0.65758545468086    7.09278686575053    5.79933274855473
C        -4.21897495601314    3.96723755911648    1.80419713505441
H        -4.13298023200037    4.80911625208592    1.12353805971985
H        -5.21373963324223    3.53803040361002    1.73654675449104
H        -3.47570535695755    3.20504201447856    1.58964492037944
N         1.20398137611557    7.30732385681052    3.92805906647210
P         1.45827283185508    8.93648176839865    3.38381777766949
P         2.65169980919262    6.48700225237236    4.25703414194242
S         4.00279913528676    7.76289944033169    4.86538810451713
S        -4.05403187267967    4.54021803464561    3.51843260972194
Ni        3.54353153511516    8.98161129347773    2.85066671181950
Br        3.14567615422662   10.91946811382362    1.82876029072123
Br        5.50529205648395    8.65644562969347    1.88109203399604

