71
CSD_code = ZOLKOC | q = 1 | S = 0 | Stoichiometry = C23H43ClNP2Pd(1+) | MND = 4
C         8.67143767481162    4.80452312164084    6.23400062378160
H         7.62684836455888    5.12601595594928    6.30949042131709
H         9.21910546171819    5.29360470535838    7.04325057795536
C         9.17687404636628    5.25531544598776    4.89778578972455
C         9.55121864130046    6.58244839583020    4.72115523136146
H         9.52541905160825    7.26016667252030    5.55925875142302
C         9.93692800741059    7.02148994624061    3.46747991015358
H        10.22076158707362    8.04899901827745    3.30607666025388
C         9.94992183597355    6.11172799020478    2.42565093691396
H        10.24613502460283    6.41296744502697    1.43373552812825
C         9.59218908005254    4.78989872630973    2.66507933903003
C         9.69540857454828    3.78697924235901    1.55716697537061
H        10.75007828931102    3.50138164919942    1.47708617744550
H         9.40726644850395    4.23078865179432    0.60111482948621
C         7.03349280347161    2.53868919220674    1.20988464299079
C         6.53616082870323    3.79990307799139    1.92974543395576
H         7.10872018754850    4.68515476701750    1.65368372005012
H         6.58897164985722    3.65673592574081    3.02245765216696
H         5.49514246620124    3.98386702114815    1.67020394688172
C         7.01085972910100    2.72189925417933   -0.30265038410378
H         7.28239729327221    1.80018216864082   -0.81112966927040
H         7.68123036490949    3.51462893609157   -0.62979071698981
H         6.00353070601429    2.98815378510442   -0.61810632016479
C         6.13189629301289    1.37733627292176    1.63385151507663
H         5.09088250527488    1.62946495480598    1.44059758147356
H         6.24339857044490    1.17982308043163    2.70336506793787
H         6.35987557322821    0.46619042665596    1.08995026970027
C         9.79188558423125    0.89656036175728    1.14997365024823
C        10.33251045881367    1.26222276981858   -0.23099491869779
H        11.02114373302062    2.10317316438542   -0.19849082659136
H         9.53017722773683    1.49776985034844   -0.92493729526058
H        10.87717077761808    0.40866570522751   -0.63061826622886
C         8.98484076721594   -0.39848308070988    1.07485203655721
H         9.65076915172284   -1.23345617581482    0.86562370680768
H         8.24663533636194   -0.35592702021159    0.27775371273105
H         8.48347667202684   -0.59677751611114    2.02113531725394
C        10.93732371749332    0.71805331801466    2.15717016229646
H        11.58427452119458   -0.09843305911095    1.84376879964924
H        10.53746960678871    0.47012225121656    3.14767348009649
H        11.55391309159353    1.61542379114925    2.23925938700124
C        10.35786186458592    2.54575179749824    7.13796734405968
C        11.36629132855073    3.11455498791030    6.13002982838089
H        11.34316680194283    4.20353688209201    6.09352793092641
H        11.16292615511925    2.71093150474685    5.12338224952316
H        12.37413230534838    2.81311862857862    6.40970513331152
C        10.51428299561475    1.02366962637739    7.14162753641091
H        11.55131842492970    0.76042177708835    7.34136697859845
H        10.23757473050769    0.61020348943444    6.16820254187944
H         9.89949299320984    0.55375776547602    7.90266544674415
C        10.58620628507056    3.11981159957534    8.53089393722117
H         9.92779667092917    2.65146685863032    9.25826301176006
H        10.43347397120701    4.19712392100462    8.56094671777713
H        11.61153505988035    2.92159437807914    8.83838601020193
C         7.16040140140620    2.61080055341978    7.43193286661795
C         7.20638286766840    1.16932158735731    7.93606699891117
H         7.92095010710315    1.05965070504374    8.74812445060145
H         7.46860649408046    0.48599884843121    7.12957728206064
H         6.22739205039136    0.88239817609357    8.31503698410468
C         6.98254272629075    3.57391898415150    8.60401278470676
H         6.11344893175428    3.26481162645671    9.18198230343164
H         6.81152113432189    4.59741557317640    8.27888696939134
H         7.84348053503125    3.56001653848674    9.26687868062784
C         6.01034905101469    2.75509550292275    6.42447083017006
H         5.06504826931536    2.50342664951424    6.90040709642180
H         6.15587501728020    2.06975081049410    5.58075886767226
H         5.92673670931151    3.77439843465614    6.04194028329058
N         9.20768983199591    4.38282663552917    3.88192450677682
P         8.74151974934703    2.23812131047182    1.93461955351516
P         8.68235868796662    2.95319370548285    6.39007221881733
Cl        8.07786764398656    0.28603818565292    4.52425427694712
Pd        8.66552750011920    2.42112276659777    4.18992494123104

