70
CSD_code = ZOLKAO | q = 0 | S = 0 | Stoichiometry = C23H43NP2Pd | MND = 4
C         4.52397010127629    0.37871584403492   18.31028644649625
H         4.99815782232957   -0.52055069683413   17.90675809620742
H         4.54447489234898    1.14592103779600   17.52732119069610
C         5.28518292148714    0.92030805642974   19.49631872321691
C         6.65934683801008    0.81203270373577   19.52035830869662
H         7.18371606086292    0.30094398622686   18.72815055530045
C         7.35880679905959    1.39563379750360   20.59002359847996
H         8.43661503721575    1.32230293337879   20.62838777791828
C         6.66790307967016    2.05437566724519   21.55617845735453
H         7.17142971045325    2.52408145089387   22.38769185385267
C         5.24013078716732    2.13796846493248   21.50192972180628
C         4.51773543700216    2.79863782451256   22.47690367311527
H         5.02320216725007    3.30211873903671   23.28799578138883
C         2.04020826234596    2.21094936374169   23.89166942122455
C         2.38188015987958    0.71762287227309   23.80969958726525
H         1.99378885898727    0.17888682020582   24.67316154631414
H         3.46462929797261    0.58125609874817   23.77257008506626
H         1.93951695258456    0.28846201581393   22.89737328713154
C         2.68787294046393    2.83276130750553   25.12409715014972
H         2.29131871499439    2.36479653180612   26.02515657335720
H         2.48595497607336    3.90003420489388   25.17884834166698
H         3.76487304619337    2.68358743845539   25.11007193970295
C         0.52523256001668    2.37871569842710   23.93439444407459
H         0.08913853547423    2.08965475969226   22.97829496247609
H         0.24969282705153    3.40709204969576   24.15492276337365
H         0.10247694010596    1.74396618622272   24.71308846447661
C         2.29428680606411    4.60262776093237   21.79231404055741
C         2.78574165209391    5.64675695995903   22.78689685569788
H         3.83487053970624    5.48075693006616   23.02597844273003
H         2.20753980247808    5.60964811609283   23.70813538706257
H         2.68418109160246    6.64651420822989   22.36450083559182
C         0.79553162594183    4.73310243728383   21.53885496977682
H         0.22949498875603    4.75332907739439   22.46540889942062
H         0.45135380432810    3.89185261235964   20.93303225334366
H         0.58967562307167    5.65705442271687   20.99831411293441
C         3.02291930813901    4.74983544821613   20.44946043979254
H         2.76261277020576    5.69170683260132   19.96737336614935
H         2.73246470320002    3.91954294373565   19.77824679782767
H         4.10363135485642    4.72059629595916   20.59265787462217
C         2.71620765408651   -1.67856933229315   19.36897962351135
C         3.74254312479209   -1.70036211324832   20.50923890674302
H         3.67411558643990   -2.63828314687736   21.05983565283938
H         3.53389472093467   -0.87626358669315   21.21039055464021
H         4.76292885448063   -1.59850176048630   20.14273008373981
C         3.04554533927056   -2.72975814295396   18.31553629325165
H         3.13732528271899   -3.70590788437322   18.79118995722787
H         3.98616101049658   -2.51402250915850   17.81196386224874
H         2.25666982553637   -2.79553465938864   17.56913253695378
C         1.34173467430602   -1.94031728274651   19.98852852795252
H         0.56597735158880   -2.03439957121976   19.23416178331279
H         1.07990486286540   -1.11448836091977   20.65871019980562
H         1.36314739230128   -2.86317043037783   20.56715225399679
C         1.83318565043996    0.45063036943700   17.17792750780168
C         2.47410368274705   -0.13037774282348   15.92061322006545
H         3.48374636329071    0.24458344552572   15.76995907559306
H         1.88072124135619    0.15300580265156   15.05154716952567
H         2.51288586026427   -1.21579338727887   15.96104126620261
C         1.82204281670681    1.98453938671403   17.12373981920820
H         2.82212400613041    2.38791002819025   16.96224906387723
H         1.43339643680863    2.38523426097348   18.07082910739489
H         1.18454971332771    2.33521481925459   16.31349501422431
C         0.39413889696446   -0.04129828096003   17.31633704696637
H        -0.01419643735950    0.26687634479506   18.27924940655907
H         0.33890677296574   -1.12446171947150   17.23491891987553
H        -0.22509200326535    0.38565752505220   16.52821212377401
N         4.58570617315049    1.53951273914992   20.45032045879399
P         2.76080816605295    0.10827045429280   18.77781980360114
P         2.77524135489400    2.83758049847481   22.27629441530468
Pd        2.54199102361493    1.48973593245964   20.51689627707660
H         1.04352480533525    1.45145910238313   20.59447304164278

