79
CSD_code = ZOLMUI | q = 0 | S = 0 | Stoichiometry = C38H28N4NiO2P4S2 | MND = 4
Ni        8.05493613359657    2.15523108925067    7.82400101789834
P         7.52544937671717    4.25386243383768    8.01305771389498
P         5.88302913736058    3.91668421776341    5.50777098951591
P         8.58579568910090    2.60540980292944    5.76923577853902
P        10.07634293524101    5.01890429840162    6.68166449987214
S         4.79650615370003    4.90771849677111    4.26561285014932
S        11.14117274074229    6.50772452972475    6.08744853312620
N         6.30890905156771    4.81239283479371    6.91226532460639
N         8.64893194347945    5.46739198309056    7.51743949094007
N         9.64209752271452    3.92753712313718    5.43210081700876
N         7.30930517256229    3.26576630970474    4.80151218974360
C         6.86965135945703    4.99399138198802    9.53502040624479
C         7.24547772922856    6.21724469544521   10.07563022611567
C         6.64975245248668    6.65773860708658   11.24463393111889
C         5.69009403250697    5.88503112974396   11.87746082962555
C         5.33197334265139    4.65262573288677   11.35356918547403
C         5.92894967285572    4.20526747034766   10.19132498526266
C         5.04027072825431    2.46878658408462    6.17163832926525
C         4.18150327241016    2.62563027018968    7.25434316380982
C         3.36623107138971    1.57549090713397    7.63317923513325
C         3.38661036643442    0.38799460755512    6.91767063222242
C         4.20680012502005    0.25299121239494    5.80781957487356
C         5.02493209015025    1.29795729056844    5.42114250319465
C         9.20126441099287    1.36918220865050    4.59175577583193
C         8.51737559739858    0.15732561240877    4.62741002080042
C         8.86927511755112   -0.86777102592565    3.77150340157790
C         9.92398846830422   -0.69240311250642    2.88927356553661
C        10.62798123778414    0.50030916106844    2.87475607957524
C        10.27416431911425    1.53345183892310    3.72498626137854
C        10.91887666483151    3.95752684211296    7.87082298358601
C        10.89571720001190    4.29709084631398    9.21968886212825
C        11.73530720208500    3.64152559503917   10.10105664281280
C        12.60812598120564    2.66986645747242    9.63596691832773
C        12.64407345177442    2.34779491013734    8.28782949923138
C        11.80878732222356    2.99814076181660    7.39874535957336
C         6.55801577404173    6.21077849050725    6.74067416951874
C         7.87364998868171    6.56973934316463    7.04164325935090
C         8.28853130874018    7.88220160326067    6.94391922196267
C         7.36707638167946    8.83210805056389    6.52295575348548
C         6.05906045935059    8.47987455540301    6.24463265733987
C         5.63428855419499    7.16297387421636    6.36305542111038
C         9.24570683740930    4.44595223876165    4.16002102902517
C         7.95775608659586    4.04812523519767    3.79432168510416
C         7.44285722406993    4.37293781432111    2.55657103661422
C         8.22065441303399    5.14427297667864    1.70292908767181
C         9.48876869017004    5.55380410399608    2.07249589411573
C        10.02563995253866    5.19338253884406    3.30145093128847
C         6.69612941558185    0.99300816525018    8.02837929234136
O         5.99772240917211    0.13340699247400    8.31096170928332
C         9.42189602083668    1.58750752447853    8.85176747573726
O        10.15766534738906    1.04392315584969    9.53369924193302
H         7.99870928243692    6.82342436888109    9.59466172266745
H         6.93861324681670    7.61038179973467   11.66361350801130
H         5.22885189878376    6.23829030527370   12.78771215704418
H         4.59747777251239    4.04114491666251   11.85669381259018
H         5.68707389583580    3.23101941596451    9.77899980638015
H         4.16659773280987    3.56584097276894    7.78986788913304
H         2.70894747768871    1.68391342941842    8.48332543042703
H         2.75016968200401   -0.43085404214369    7.21786960874433
H         4.20232844034274   -0.66586621223144    5.24015999631817
H         5.65771349401843    1.21862655863468    4.54686563622300
H         7.71520560139484    0.03250731763109    5.34733320310829
H         8.33182038855407   -1.80427316047077    3.79635262728220
H        10.20533852484037   -1.49186472075899    2.22007716317262
H        11.45962961185685    0.62850171734639    2.19768413790019
H        10.83390672899845    2.45683822965237    3.71194457636396
H        10.21540068917607    5.06332041430716    9.56863472201490
H        11.71285041943653    3.89208946269884   11.15128053923259
H        13.26590547719416    2.16394152133237   10.32662541414416
H        13.32804612488716    1.59305124011775    7.92906548287514
H        11.83206916660832    2.76376377922456    6.34233515288807
H         9.30033273001201    8.15910239689442    7.19072894699252
H         7.68049327815645    9.86043676561091    6.43313664170656
H         5.34994593467945    9.23347798789391    5.94013321755246
H         4.61217428559659    6.88664594742873    6.16446912184170
H         6.46191105004454    4.03614357987421    2.26540137340417
H         7.82632914155905    5.41445258522032    0.73597740501367
H        10.08418515331652    6.14597472187272    1.39532390397396
H        11.02479483404955    5.48595893385336    3.57981135911673

