56
CSD_code = ZOLPUN | q = 1 | S = 0 | Stoichiometry = C24H25BrClN4Ru(1+) | MND = 9
Ru        0.82512014271830    9.82025899350153    0.83503497689242
Br       -4.09419806658825    6.17713857159065   -3.41660273383026
C        -1.04208825101216    9.97195496004472    1.52665722448883
C         2.21053064685332   11.72023948662599    2.60262060190504
H         3.03864831466170   11.44904324055186    1.96120356541735
C        -0.02843855754996   11.48212055097198    3.11888057294006
C        -1.20304963192289   10.79752006213503    2.65289912987821
C         2.37904794722941   12.66876332007765    3.59384367953602
H         3.34311770831905   13.12776434854211    3.73767067929110
C         1.29244696007663   13.02294732960135    4.38369962657641
H         1.39414840572624   13.76124231899480    5.16242590046916
C         0.07054721933345   12.42426637587219    4.13780733094009
H        -0.79820109567536   12.69263529380626    4.71529997101789
N        -3.17356653361913   10.00483417985447    2.16303163973710
N        -2.30568146785044    9.54495903370596    1.28439398738136
N         1.04727424399171   11.11682444487893    2.36837695931187
N        -2.51417007598714   10.76829960825908    2.98584283089005
Cl        0.32349548374808   11.74340086978028   -0.40460858486619
C        -4.13951458369568    7.04327513794862   -0.69943924782645
H        -4.90845370027824    6.29682692079971   -0.57950021546237
C        -2.16366388897236    8.97748610148373   -1.04900438197235
H        -1.43115647243418    9.76422792242609   -1.17227939514772
C         1.30747738828818    7.62852517384515    1.22385902205593
C         3.06173076545345    9.17960158745011    0.45216961105954
H         4.01926655133977    9.65320420508677    0.63779299614117
C        -3.55115931524630    7.24273907726276   -1.94157493302715
C         2.47579573763572    9.28073169580058   -0.81084732508744
C         0.76386975051535    6.65739402123102    2.24487798619419
H        -0.22670618310899    6.33103562581151    1.90696178188320
C        -2.57251948042370    8.21234193228842   -2.12340496439801
H        -2.14969221415442    8.37321816625068   -3.10243915510771
C        -3.73355087305988    7.80825813851875    0.37710611224188
H        -4.18152278591100    7.67321802277192    1.34861645921612
C         0.73597319471718    7.70414117471915   -0.07652219198924
H        -0.09964168916900    7.05789404268011   -0.32620260553752
C         1.27761149826684    8.54406643360790   -1.05359436833053
H         0.85180095914822    8.55532609057964   -2.05116613599540
C         2.45977038830074    8.40469390149522    1.47489268962011
H         2.97126011035689    8.30933691270741    2.42664337294370
C         3.07730238887878   10.10230707286374   -1.90290333965464
H         3.12120327522278    9.53213394852465   -2.82940210715490
H         4.07777489826072   10.43886842066468   -1.64202499577411
H         2.45382283860806   10.98099906872348   -2.08451456377650
C         1.67827941690255    5.42974269444969    2.31656368120363
H         1.27416932274269    4.70829662234454    3.02107026565057
H         2.67608524065271    5.71015434574735    2.64558217355808
H         1.75718805752826    4.95289153592852    1.34247005939105
C        -2.73625057415148    8.75947854122304    0.20007120840351
C        -3.21103331763733   11.44053677215587    4.04274060016490
H        -4.25392677444480   11.13158258505034    4.00130156604891
H        -3.15056619318307   12.52076536044551    3.90533288742803
H        -2.78649954433877   11.17053463331590    5.01000712772662
C         0.60999816725214    7.30678938002866    3.62196744410555
H         0.04517043103463    6.65120614834892    4.27886761640393
H         0.08059977162463    8.25774396762442    3.53513693438301
H         1.57712404502620    7.48871362901454    4.08341097243907

