51
CSD_code = ZOLSOI | q = 0 | S = 0 | Stoichiometry = C16H25O6PSi2W | MND = 6
W        -0.16486753725781    4.37329966634971    3.44083467521373
P         1.20158560937579    2.69419954874905    2.27657119402261
Si        1.63339727264765   -0.33420582678150    2.78266750205774
Si        3.93215723536567    2.01762645070111    3.48345383738584
O        -1.78466824018235    4.62772601138124    0.76144175275586
O         1.73439347970735    6.63600790611715    2.37113780099847
O         1.45919530617341    3.95647823393529    6.09558717750237
O        -2.07009738209150    2.10240973234173    4.47812149496171
O        -1.93045309085476    6.49543432972528    4.91232375221753
O         3.08604614528235    3.52170910568363    0.09843631811712
C        -1.21567662347013    4.55338738286559    1.74899198161981
C         1.05570361215268    5.81435825393152    2.78044305359898
C         0.89151421460749    4.12756530966785    5.11680698179198
C        -1.37811969623866    2.92183977634096    4.08317611124140
C        -1.28422162593577    5.72200926591758    4.37189428897667
C         2.07175442749074    2.94685452597650    0.71557587711088
C         1.01145754116367    2.15742570578084    0.55162513713704
C         3.16723117620414    3.27930985703409   -1.30882310115290
C         4.42740404770994    3.94530236522164   -1.82907082353277
C         2.10064069502838    1.45860759138540    3.28273349811463
C         2.25791165769184   -1.53055629893179    4.12859362806405
C         2.36312785405016   -0.88528014236739    1.10746673608459
C        -0.27327571014990   -0.36595859036247    2.72238726205056
C         5.03533659793916    1.23863315946325    2.13796287681273
C         4.04487151593121    3.91587385515061    3.36350758629855
C         4.50908243238981    1.46317313880651    5.21345557033856
H         0.44415162265674    1.63082220895004   -0.18700549665585
H         2.27332832291305    3.68965951270860   -1.79459144206358
H         3.19142388601981    2.19609390558835   -1.48532115855614
H         4.51536809474741    3.78189217017907   -2.89920855999041
H         5.30044995656591    3.53165886913484   -1.33113857259558
H         4.39008389894033    5.01337151048700   -1.63318381552674
H         1.64823935801028    1.59877663837460    4.27177245627408
H         3.34130090813553   -1.58678639945347    4.13882042513979
H         1.88094238285424   -2.53221068475099    3.95210628012077
H         1.93277885015783   -1.22801192372837    5.11838263634120
H         3.41027088350641   -1.15165160845666    1.19881528144627
H         2.28316352061660   -0.11122041463534    0.35272728040491
H         1.83697237466287   -1.76074856149023    0.73941678634610
H        -0.65514112867042    0.49597491884879    2.17892515157228
H        -0.69753900956542   -0.32999994157082    3.72173045568145
H        -0.65627787850860   -1.25959599072853    2.23909992673783
H         4.62994048810542    1.39656923782669    1.14460870377628
H         5.15091497613952    0.17038331895648    2.28619387133184
H         6.02599663180033    1.68108074589741    2.16247786618233
H         3.85777254872097    4.25842332412125    2.34983116171541
H         5.02875268854303    4.27475272093099    3.65230789921167
H         3.31840056090783    4.39742721490322    4.01388665395858
H         3.93896759469153    1.95434802262730    5.99563021517254
H         5.55407916459106    1.71034929696942    5.36692580359451
H         4.40082838872967    0.39281159422482    5.35058802059378

