50
CSD_code = ZOLSAW | q = 0 | S = 0 | Stoichiometry = C12H25B10CoS2 | MND = 7
C        14.74239814794927    4.24130869925272   13.56480805132846
H        15.41885761845564    4.42643054219635   12.74057279164437
Co       10.75916179142290    1.61668157750622   17.09438739436202
S        11.62661798370116    3.57534920872989   17.50581189169741
S        11.84878407048441    1.20344150614853   15.24992653659134
B        12.81057872008748    3.95518612168791   16.11762611561868
C         9.47045756237026   -0.03388788551104   16.98167032158123
B        12.92889176285687    2.68179896530371   14.90574793799410
C        10.41475802689522   -0.20083171896177   18.02832888588549
C         8.74523762836229    1.17104573384039   17.23150400700323
B        13.26117363619137    3.44048432171148   13.32514335512869
H        13.01145367855420    3.03863705869956   12.25175134677994
C         9.19535686262222    1.70697464232000   18.48055430598401
C        10.23818228883073    0.87583342789246   18.96262016481733
B        12.15107975816159    4.25092898078279   14.46218669746006
H        10.99366139859175    4.32050358246077   14.27674134270116
B        13.31475233399206    5.19326648290327   13.58485447114176
H        13.19821839429644    5.99207684443384   12.73390660726711
C        14.63598367064790    5.39366030835449   14.66115407597516
H        15.24867134882407    6.27008292585952   14.49463237734845
B        14.39275722710425    4.77408238770880   16.22669353095859
H        14.85825711362317    5.35364576691041   17.13413460571719
B        14.34264807157736    3.00771160298639   15.98197095054648
H        14.65739534960766    2.24321659503434   16.81572540003336
B        15.48282246347548    3.96347835400402   15.08781140357492
H        16.65304450091173    4.03264836243051   15.12837282853603
B        13.06875037417966    5.52507009486649   15.30882940803034
H        12.68404744052594    6.58642294508920   15.62744212633643
B        14.58524790271491    2.68930574714631   14.24308877447785
H        15.18569497512096    1.80569573817654   13.75861346030720
C         7.57490603427510    1.66490799488395   16.44106123761908
H         7.68640354531129    1.42100140708988   15.38747719985295
H         7.46951817323926    2.74309982775400   16.53291711152531
H         6.65957004012274    1.19669503919045   16.80959335672765
C         8.60435168924558    2.85417015072743   19.23478030897143
H         8.13973440092843    2.48927190234905   20.15188647017927
H         7.85107937810609    3.36578774643584   18.64310172360413
H         9.37652798569061    3.57223081897950   19.50474277310625
C         9.22669356666403   -1.02432969255649   15.88883977372300
H         8.96902157061694   -1.99172807717555   16.32062211322975
H        10.11982667316094   -1.14837414441299   15.27815653253840
H         8.41396820896763   -0.70176913413088   15.24515532487210
C        11.28389560605925   -1.40258269686098   18.21425292206060
H        10.71922412276212   -2.18640863738911   18.72371146994749
H        12.15888048662144   -1.16737002107641   18.81478479625141
H        11.61400309950807   -1.78711825340243   17.25263900831676
C        10.88666258063760    1.00432879307072   20.30290356345584
H        11.03032303122037    2.05102294703677   20.55879824480768
H        11.85172727360911    0.50492939746972   20.32345252956940
H        10.24774043111295    0.54908571205524   21.06261237281407

