88
CSD_code = ZOLTID | q = 0 | S = 0 | Stoichiometry = C33H48CrO5Si | MND = 9
Cr        5.38362992697109    8.66464053229563    3.70151017877115
Si        3.82952870736740   12.20113491883401    2.55336346892451
O         5.46959152064001    7.02009769727318    1.22808593759039
O         4.34197351082509    6.06816286157727    4.70508078304807
O         2.50613167723293    8.59629838961477    2.95788163060766
O         7.64970167682751    7.71262212245249    5.93663275629728
O         5.36386256478419   11.90927204174967    3.10206423457216
C         5.95511312539612   10.86413449798125    3.73854032466358
C         7.02684743653227   10.15641960157058    3.16536278319328
C         7.58729006145552    9.07907505273836    3.91126191401197
C         7.12914724776538    8.70464394103119    5.16784144682011
C         6.15880457581722    9.53680482968944    5.83004233156182
C         5.79279704446122    9.32017373166284    7.17294093151410
C         4.95344977560133   10.19035810834903    7.81802479963615
C         4.49177649812157   11.33472339081439    7.15800410037695
C         4.82041446225261   11.56339166510302    5.84713081895922
C         5.61613295177517   10.65078503171749    5.12585694937055
C         7.72336694551919   10.62211081234938    1.88540854260350
C         8.86872816569394    9.69504993970438    1.45808175998311
C         6.74870051345151   10.70320506459369    0.70708376542966
C         8.31213244805203   12.01343864012112    2.17315584455348
C         8.54973655255989    6.75321335594374    5.38575353474589
C         9.15999745067711    5.98492502791003    6.56868663275618
C        10.10166966236369    4.91033647079439    6.02235490521876
C         9.36189674194482    3.94947420883281    5.09633123075066
C         8.74472380402852    4.70268969313056    3.91894104597991
C         7.81471787343128    5.79076836789768    4.45128238397661
C         7.97777248097175    3.76303415801527    2.99426435059915
C         9.81962303305472    6.93283338063351    7.59247558032502
C        10.01814239489116    6.23313647450132    8.93623668350813
C        11.14619636435782    7.52387087437450    7.11806820265270
C         3.41374613396716   11.15232319412682    1.01509289038782
C         2.43098215764504   11.87796799486691    3.81438693323980
C         3.95223501985014   14.07941309730117    2.14346082865561
C         4.98965800745717   14.35627255202405    1.05312346660594
C         2.58869908524843   14.55317232942927    1.64142331896314
C         4.32997252822221   14.89477890757303    3.38318573830785
C         5.47364260422635    7.69629946991254    2.17182932548828
C         4.76809586366361    7.08685102395886    4.35943276241822
C         3.62181235224123    8.72826877534728    3.24392905334820
H         8.43206021568629    8.55310532004889    3.49637754080107
H         6.20655391576490    8.46238066635779    7.68030157935934
H         4.67402692918304   10.01433190709456    8.84532966149992
H         3.88357533332063   12.04937912002607    7.69143175594564
H         4.50533331197617   12.46902138520415    5.35630293800755
H         8.50400575964277    8.68828253889581    1.26302486042436
H         9.66649097609713    9.66176150549887    2.19784454682830
H         9.30162026121558   10.07590012591560    0.53555612169841
H         7.29655352827389   10.92334610120023   -0.20673340920719
H         6.02015256454797   11.48719374176607    0.86149378183855
H         6.23182820360741    9.75418580907308    0.58084976184906
H         9.04989591576087   11.95844636573214    2.97263118439407
H         7.52999745832794   12.70447932970047    2.47430612127838
H         8.79747860435314   12.40587354770642    1.28249539285181
H         9.35643097937869    7.26599648399882    4.84282358041781
H         8.32780608134068    5.49023740046173    7.08102074263747
H        10.91315874726371    5.38181663520376    5.46502085817866
H        10.53942503687808    4.35308852733290    6.85106819495417
H        10.05407997266106    3.18962275890457    4.72775433939245
H         8.57085493354606    3.44062204313929    5.65084343263200
H         9.55177654535403    5.17729936994068    3.34747998780224
H         7.36831500198555    6.33863851150236    3.61733302985602
H         6.99794597335568    5.32962189100207    5.00956253299095
H         7.54014789413786    4.31572752709285    2.16666354658532
H         7.17296865924399    3.27369828922449    3.53726412906544
H         8.63802774744367    2.99832977757931    2.59174077970400
H         9.11699033283143    7.75875262372053    7.74752777048409
H        10.40125293384617    6.93703469791976    9.67167060707007
H        10.73076302118965    5.41653375415904    8.84914846252753
H         9.07731659574568    5.83194738965314    9.30558265735196
H        11.48514597387670    8.27744371133864    7.82587939408126
H        11.04438953418015    8.00065365492526    6.14621207586541
H        11.91347808612533    6.75668612297853    7.05180474089813
H         3.80183779685269   11.57003537779305    0.09140421204071
H         2.33882661313381   11.06413986617713    0.89882832832069
H         3.80644827770008   10.14353045362417    1.11326791830516
H         1.48160038021679   11.78791403995066    3.29640526644901
H         2.31755096571167   12.66776026814004    4.55127639029587
H         2.58812321915845   10.94666164723953    4.35102918119072
H         5.97992057489779   14.04233124058766    1.37182619222650
H         5.02806809180432   15.42264725569407    0.83132794082345
H         4.73909495562007   13.83113046240763    0.13476140769756
H         2.29554757750788   14.00257377905836    0.75160733815496
H         2.62103170245174   15.61317022636607    1.39175580468826
H         1.82357076490323   14.40563301774832    2.39865345238574
H         5.29150559078901   14.57291043760061    3.77712828347366
H         3.58060060545697   14.78665656456712    4.16427885589876
H         4.40298490837832   15.95299450105184    3.13342255754499

