42
CSD_code = ZOLVEE | q = 0 | S = 0 | Stoichiometry = C18H20AuBrN2 | MND = 2
Au        4.30333496036328    6.53314284370387    5.56749335681945
Br        2.26886504396596    7.55659637637618    6.22510694850217
N         6.78727692045017    4.89201339984007    5.85053643453832
N         6.49448116237907    5.66641789531859    3.72398893986635
C         6.07595484367354    5.60059652929119    4.98203799958324
C         7.97353406146546    4.12731825092524    5.50067544641249
H         8.02290173882695    3.25071063129542    6.15148074378012
H         8.86864395033970    4.73859346073213    5.67342227654117
C         7.89314742209513    3.70499969672396    4.04270707374404
H         8.81052820370875    3.20600866267053    3.73418232695685
H         7.05766181436410    3.01401577354168    3.91037499937090
C         7.65351586898419    4.95402303293177    3.21028918289183
H         8.53238194712353    5.61070958417069    3.24252633329200
H         7.45952342156822    4.68785772953864    2.16805673700118
C         6.39774816857265    4.76885531533861    7.23960103228602
H         5.62118094360694    5.51439500670597    7.44193063646951
H         7.26516746754231    4.98932669930371    7.87093707624739
C         5.86584866872488    3.39035400934697    7.54407284330296
C         6.39771814579281    2.62817122808483    8.57453595559519
H         7.20093487825498    3.02821863739636    9.17758249282957
C         5.89860961471524    1.36439014002898    8.84033050781334
H         6.31638924667783    0.78202905356912    9.64803264859977
C         4.86897975287799    0.84905999531899    8.07266319856852
H         4.48016688497536   -0.13653611157664    8.27987196559318
C         4.33486163329951    1.60314148355601    7.04074877069675
H         3.52682359927192    1.20839454845120    6.44320221969219
C         4.83064468824470    2.86662482122966    6.77909553002047
H         4.40739383398828    3.46153080931440    5.98184674985985
C         5.77854080113783    6.42266877411858    2.71745373323564
H         6.48893060372869    7.06653231811857    2.18788141142551
H         5.04547114750311    7.05711278992062    3.22685866695101
C         5.07125978682518    5.51249709219551    1.74435156792231
C         4.18236786529316    4.55534558372435    2.21853828930683
H         3.99408392850017    4.48751824824545    3.28091610202089
C         3.53290244334083    3.70608705400524    1.34242699354583
H         2.84044743684814    2.96956235154544    1.72163685098848
C         3.76494912559952    3.80578367140471   -0.01958584326360
H         3.25604888239718    3.14477179801846   -0.70485601781827
C         4.64686433741916    4.75792018602097   -0.49986687168419
H         4.82889188089972    4.84194189690161   -1.56095402336054
C         5.30042282127672    5.60510670110702    0.37882381946674
H         5.98740005334547    6.34899203156417   -0.00015510560685

