67
CSD_code = ZOLXEF | q = 1 | S = 0 | Stoichiometry = C30H33ClRhSe2(1+) | MND = 8
C         3.42173069971785    9.25183614248567   13.71355900633085
C         3.74886774867986   10.06276696748554   14.79103063342163
H         4.70780640954196   10.56217867987545   14.81606649621824
C         2.83891423092196   10.22656701193781   15.82084304794451
H         3.08742881357986   10.85851016415398   16.65943011388760
C         1.61331640138588    9.58200249556426   15.77385580682240
H         0.90572585568814    9.71228330414814   16.57767942601180
C         1.29481469215017    8.76752761605243   14.69886190591975
H         0.34138931705918    8.26337171887740   14.66187919307011
C         2.20028758657304    8.59913729544458   13.66714818582475
H         1.95308698462385    7.96222205265889   12.82288536035984
C         3.87506275697459   10.48360272731777   11.09804168784115
H         4.28234437738650   11.41882622342412   11.49079672032669
H         4.29334554718748   10.29866342184107   10.10862008409433
C         2.38792147798245   10.49859561374160   11.14329228364613
C         1.76264747937927   11.38817882103928   12.01457735997355
H         2.37111404812366   12.04995799705082   12.61374189706962
C         0.38688175419823   11.44149637503166   12.12320993082870
H        -0.07274399925985   12.14003400485122   12.80429177686986
C        -0.39398937480622   10.59459749942790   11.35463285755252
H        -1.46941828656337   10.62482726596976   11.43112494500394
C         0.21220978076231    9.71067710400511   10.48329755755677
H        -0.39384594271057    9.05028701076064    9.87946064562848
C         1.59821452514368    9.64849630632282   10.36070071978284
C         2.17559921977633    8.65116742752370    9.41244794081743
H         3.15225589117554    8.91994165153557    9.00854863796124
H         1.48110596441071    8.44108481390646    8.59653822648338
C         2.48703876816687    5.78814793667414    8.76027874745488
C         1.30931478277373    5.15722531701744    8.37979832060859
H         0.40897162994737    5.30088981652930    8.96313314742593
C         1.30492463593815    4.35241728653147    7.25440736985451
H         0.39301489306637    3.86209156668689    6.95038128062352
C         2.46893891059980    4.17709865833885    6.52273461005735
H         2.46326257630935    3.54751912904791    5.64659156490810
C         3.63944216333065    4.80792176285889    6.91295238453659
H         4.54465612498204    4.67360084633342    6.34036695893307
C         3.65489954652244    5.61732086994696    8.03605561267495
H         4.56276739458205    6.11900184562994    8.33963778881688
C         4.26928990611803    5.31456705872699   12.92328378303826
C         5.45494482957368    6.02305613197822   13.28888176743006
C         6.40461898149405    5.87198872660391   12.22440180979920
C         5.84596287254535    4.97048440596420   11.24717189640791
C         4.52831731187149    4.63630060856290   11.66990120847959
C         3.62625661645840    3.60887142819351   11.07240249957720
H         3.86300776405867    3.42154031127928   10.02787417687422
H         2.57986310849056    3.90950189561047   11.14205512066360
H         3.74401838262423    2.67515509641763   11.62462564085648
C         3.07139895858787    5.07328614393420   13.78191288656579
H         2.16523091863102    5.01040552752135   13.18041998257667
H         2.94393312388519    5.86237196160412   14.51927779038695
H         3.19166516298045    4.12610052602317   14.30976506043166
C         5.72091644921294    6.72596761744946   14.57659896336880
H         6.37881737556277    6.10632293893040   15.18743866167219
H         4.80365626206156    6.90592909988802   15.13216759022476
H         6.22321795756915    7.68172892750049   14.41232552277424
C         7.81288385849351    6.36237724601429   12.24047039969009
H         7.89693028087486    7.30067630614741   12.78569419753398
H         8.18774375360551    6.51141156148268   11.23042671067003
H         8.44702647746185    5.62280994860465   12.73201331859737
C         6.59284638180230    4.40420870499674   10.08766850308850
H         5.92886664781371    3.88718275478726    9.39989961624643
H         7.33362136833362    3.69318080045563   10.45626679573696
H         7.12372268113955    5.18334248735967    9.54268385362318
Cl        5.61390842448085    8.00567546191548    9.61853010489723
Rh        4.60963378370889    6.82958660121666   11.38969474841686
Se        4.68410051988062    9.08889975531316   12.25869737039144
Se        2.42299445538612    6.91059721747728   10.33014978684232

