116
CSD_code = ZOLZIL | q = 0 | S = 0 | Stoichiometry = C43H67BClN2OsP | MND = 7
Os        4.42346784244140    2.13897844390083   14.35377084511356
H         4.78737965952696    1.77175328565441   15.81919843404701
H         6.01631152921850    1.57081601233347   13.64024531224625
H         4.74108588113342    2.30375745985960   12.05708293005797
Cl        2.40988537117995    3.16773830824289   14.97513942345698
P         3.16590561311178    0.11694852409670   14.27404454265008
N         5.31159376583336    5.05720687319454   13.86311095463882
N         5.29461388388817    4.59921704536097   15.96423720612341
B         5.41153005535469    1.44944341926999   12.56195947510442
C         6.17145468888362    0.53687565627232   11.48749952555850
H         5.51606166486826    0.26829156872389   10.65461279560261
H         6.93121171821510    1.20507571378286   11.05849679028068
C         6.86418373118886   -0.69912986117361   11.97815708055251
C         7.92097003082924   -0.62347587361635   12.87930714994303
H         8.25435469179596    0.34211891370291   13.23094815709272
C         8.55463309436517   -1.76598464669239   13.33064003615785
H         9.37450313158801   -1.68434719059787   14.02966308659774
C         8.14034028171822   -3.01266333046123   12.89243516994918
H         8.63390603901094   -3.90644934189877   13.24525212051758
C         7.09110356103855   -3.10395863102926   11.99487809788488
H         6.76231795211230   -4.07126353437093   11.64182809878095
C         6.46397598400635   -1.95728669955037   11.54079623656065
H         5.65411004588501   -2.04147970662439   10.82750488960664
C         5.15042384647856    4.02806336008153   14.74101029698773
C         5.55056958692532    6.23424184156446   14.53267864245058
H         5.72008729229365    7.15581974488802   14.01433279751940
C         5.53487377457747    5.94489970808374   15.84948921663914
H         5.68030990478553    6.57054595318982   16.70556994686150
C         5.44474805194386    4.96825594515505   12.44945759580991
C         4.31612777905417    5.07393259550356   11.63032980678739
C         2.94839113988775    5.30078775800362   12.22685297661521
H         2.91282472505692    4.84299149298043   13.22099952087039
C         1.82584066768160    4.67793661474401   11.39655970205107
H         1.60707240611500    5.27049416229561   10.51014056660906
H         0.92268377431960    4.62246071135763   11.99945755181791
H         2.08901047548912    3.66949469289556   11.08385625999022
C         2.70405891800735    6.80462973858344   12.38833053328895
H         3.43449658898834    7.25113531051758   13.05886886919019
H         1.71359673311224    6.97193654487815   12.80410559541149
H         2.76781053628110    7.30643296269956   11.42362167894857
C         4.49897616947916    4.99760373973949   10.25570253105774
H         3.64836756910314    5.08067506060938    9.59846199200103
C         5.75727448655068    4.81551334820437    9.71425070256754
H         5.87746927963967    4.74852540057014    8.64280314831887
C         6.86266640125628    4.73372080373926   10.53772285180019
H         7.84225813460542    4.61040961887338   10.10141377542279
C         6.72953897287105    4.81953785074764   11.91734986534395
C         7.96087619600462    4.79393295798377   12.79472029908000
H         7.66090875003746    4.84596412110248   13.84473056293018
C         8.83583249303404    6.01650427887787   12.50375558755934
H         9.21011404032225    5.99391365446279   11.48336866806147
H         9.68639469475371    6.03637814514675   13.18155303875918
H         8.26735332947539    6.93441785409672   12.63868854138657
C         8.75495813727997    3.50079082319787   12.60959716566245
H         8.12859768933675    2.64390081690803   12.84540686126239
H         9.61596193536085    3.49507056224807   13.27485410525236
H         9.11374970214213    3.39825766997390   11.58832573927045
C         5.39538999327309    3.94521069473651   17.22529631012350
C         4.38761750337372    4.11618056378583   18.17609832493159
C         3.12387129489636    4.88588106983504   17.87763337652683
H         3.08336686543940    5.10373751400595   16.80822199715733
C         3.10444218578670    6.20470746456952   18.65513577994441
H         3.11720774391404    6.01867687571381   19.72686166874194
H         2.20408088826910    6.76483516189835   18.41383285343376
H         3.96728965847627    6.82014702933793   18.40821124398439
C         1.88743035692991    4.04929310650333   18.20772612453187
H         1.94201723916625    3.10154497337639   17.68138423516343
H         0.99435500125932    4.57196217196313   17.87502890943061
H         1.80113023203976    3.86148880523212   19.27488247124284
C         4.57440029986627    3.56011005934882   19.43603604487070
H         3.81197607746868    3.68281119338081   20.18910206886003
C         5.72281213384000    2.86055509959538   19.74271161702566
H         5.85373129064393    2.44101775714635   20.72944450113260
C         6.70979366817250    2.69898071349751   18.78865980368870
H         7.60591647254762    2.15629709652957   19.04369110738641
C         6.56666277411324    3.23292764113093   17.51726079560477
C         7.67805580515228    3.09245660308256   16.50154521600845
H         7.25558611486313    3.24923002505198   15.50460332610636
C         8.29514461296682    1.69454622366465   16.49717136790345
H         8.86487942150366    1.50236789728913   17.40230820265305
H         8.97039325636934    1.59419522805630   15.64999042536275
H         7.51053163596342    0.94761650599970   16.40645980173300
C         8.74487729064991    4.16057473441295   16.76175068540661
H         8.31695271688051    5.15918142454396   16.69324033054421
H         9.54885594387754    4.07867833065684   16.03323922120552
H         9.16715065676649    4.03858598274947   17.75685320871501
C         1.94032427380383   -0.18052748986250   12.87809175148897
H         1.36239664402042   -1.07612802302551   13.12694775236157
C         0.99956013014641    1.01730817928114   12.78023350202724
H         1.56289938668575    1.91784178124600   12.54395599561413
H         0.47719612816997    1.19904052971062   13.71597051696603
H         0.25967545053340    0.85983846037397   11.99492999549620
C         2.61528641845956   -0.40419258246229   11.52983102253755
H         1.85699152356967   -0.51375709485470   10.75377161198403
H         3.22820930859627   -1.30239301679672   11.52895733821218
H         3.24063782126866    0.44708706362673   11.27083138141016
C         4.19329375678113   -1.45394242450980   14.18911544107459
H         4.63420993570281   -1.37942545704006   13.18747188203705
C         5.35720692068520   -1.41189499973841   15.17666899170271
H         5.03481278799352   -1.66906636263452   16.18078887226725
H         5.79234807448830   -0.41356841884870   15.20264847851956
H         6.12638618808686   -2.11979477998603   14.87200661978722
C         3.47144222576850   -2.79373346171245   14.28498611983999
H         4.16713871877640   -3.58920602176883   14.01644817870104
H         2.62176809134509   -2.85085318595997   13.60908233394309
H         3.13087205755448   -2.98278917561559   15.29960988937870
C         2.00064674197851   -0.03324217045403   15.75326935093602
H         1.57409161502950    0.97595398166137   15.80809758059887
C         2.78735155405842   -0.25230182789271   17.04392724065629
H         2.16372213856034   -0.00621849831725   17.90231361059819
H         3.66419019209700    0.39321321345516   17.06327775213128
H         3.09987806512868   -1.28890297645248   17.14246814072895
C         0.83944618670435   -1.02411916605413   15.67614341889297
H         1.17785009263296   -2.04445080609264   15.52459490821830
H         0.13164571900512   -0.76877191962098   14.89265049831463
H         0.30077832067410   -0.99055954984989   16.62305345082597

