120
CSD_code = ZOLZOS | q = 0 | S = 0 | Stoichiometry = C65H44Br2F6N2Ni | MND = 4
Br       -0.89785850831822   14.66140793739758   11.36555546905264
Br       -0.82401531982056   10.70262129763766   11.56134177804518
Ni       -0.02194262987381   12.67041635751443   10.93262051598099
F         2.38029177389737    6.61830868065568   17.34491247741273
N         0.77335028954161   12.61754798826300    9.35857282509351
F         6.16031805273473   16.15930302096318    8.53850773139597
F         6.16863724630484    9.17917368019699    8.80731039229200
N         2.12954663989943   12.74704005762256   11.74736335962027
F         1.76242215801428   19.50653469518639   16.48346931773293
C         2.07085961022542   12.63412436493201    9.37394125097350
C         3.04346074734771   12.59608607209377    8.29949371359408
C         5.38486801725458   12.76264480081446   11.06614879276911
H         5.37407896050994   12.81759501468492   12.14307713065794
C         2.79954424627830   12.70417897535757   10.64940177614191
C         4.31321380336100   12.64388945070452    8.92691125999529
C         3.58848785899617   15.61347573292871   11.69695669112777
C         3.12412853412296   11.64208240782501   13.66677097454487
C         4.22436781388882   12.71029996895157   10.33574492951681
F        10.36572407846680   11.84664620905479   16.45480543505971
C         2.43698999720353   16.47867571966638   13.78590284962520
C         3.07228916617038   14.06567595252015   13.55239751609415
C         4.13925644665345   12.96527223034903   15.41804401445563
C         2.98191059593660   12.52859122063728    6.92733018902906
H         2.04139371444912   12.48973861392106    6.39835742845927
C         5.34230451681515    9.39925458319243    9.85290212563279
C         5.52013604762931   12.62712237499894    8.22442319969101
C         2.64099889101141    9.25462305659076   14.20216612175637
C         2.79548747878641   12.81802840267519   12.98311187928044
F         1.98877480253162    9.59725171531521   20.13777325269890
C        -1.17415500390949   11.27994481789597    6.52910790936134
H        -1.47011245346473   10.32367606395710    6.12536274025843
C         3.81341805456909   11.73714847330267   14.86190926229670
H         4.08739525470256   10.83263971077671   15.38170725786266
C        -1.18382353770978   13.66989226863352    6.41845761845995
H        -1.48744703954693   14.58214436657007    5.92790925616527
C         5.03469910651530    9.93559548102816   12.15066148979336
H         5.44513172668625   10.15638888565097   13.12493488353220
C         6.34462243544601   12.69473766899356   16.62178195273640
C         2.63431005920900   15.32440732795832   12.82876470906109
H         1.65245992681587   15.11712722867181   12.38730304349801
C         3.09591736474193   15.80641505558782   10.41276360628681
H         2.02782148761525   15.81136807107272   10.25429581017257
C         6.61147779979633   12.74719193538698   10.37635558659682
H         7.52073684682306   12.79010147719116   10.95749151821577
C         3.65551945576108    9.92643213150911   11.97230901702401
C         3.74717519611547   14.12096563577822   14.76242354796420
H         3.96227623716886   15.08586269297389   15.19811887507623
C         1.73935447520426    9.47778355915293   15.24054653538096
H         1.11347260372528   10.35707853009525   15.21972846618993
C         2.72576360563667   10.29126041736449   13.10224733936208
H         1.71746045583388   10.39605976422271   12.68529278619323
C         4.15304180647934   12.10044818364543   17.70361845690901
C         5.88667735541601    9.66609737724737   11.09546637535152
H         6.95769411467301    9.66776801865642   11.22118902488872
C        -0.35491420884253   13.75187021416954    7.52631087628325
C         3.13910319509887    9.61674903973384   10.72084073035310
H         2.06815011557160    9.57390694007280   10.58918446232452
C         6.94695485586292   12.36731217829099   15.41504769719694
H         6.35892116875788   12.33629019783655   14.51013878867240
C         1.97826842782846   18.51385004076471   15.59425278305993
C        -0.34478051561399   11.30738796622122    7.63965967647674
C         4.96235606459748   15.65327838384015   11.90694628624935
H         5.35491616364557   15.51827492928250   12.90402100073452
C         6.69482427574667   12.68192000049796    9.00777889695496
H         7.65705840827246   12.67245736024815    8.51887006598829
C         3.33599009980229    7.21563177993421   15.27995918547821
H         3.94377556765655    6.32507106753445   15.30824063242082
C         1.20148308651688   17.37055746918124   15.65820014234959
H         0.42747298253716   17.28726505272160   16.40428977047829
C         3.42498465025851    8.11080189275746   14.22711956964233
H         4.11317869557742    7.90457581186413   13.42170168724287
C         3.97611634999062    9.35851136164008    9.64995552206773
H         3.58884741126403    9.12641249541109    8.66989664379091
C        -1.61765924082370   12.44815874108871    5.93717145069043
H        -2.27663564194993   12.40603098150141    5.08389355918783
C         0.01674194608007   12.55862537002994    8.17882086949975
C         8.29975939078781   12.07998363119364   15.35079286244799
H         8.77505301975625   11.82266392679418   14.41725510754872
C         0.15093237090157   15.07849723398323    7.98549041381106
H         1.21065687751455   15.02664498397764    8.23089805681779
H        -0.38613715397293   15.40952340451366    8.87608836555191
H         0.00460918995214   15.82587873186926    7.21040881700161
C         1.43647093474537   16.36013861060916   14.74716782580916
H         0.83458667543692   15.46451181691881   14.77795685949714
C         3.19250523119595   17.64122188903167   13.73967415361979
H         3.96085396800406   17.76120394514936   12.99126372607758
C         5.42159453948914   12.55736007294333    6.81705662989346
H         6.32254129763530   12.54086928964068    6.22298835794560
C         4.87172790443391   13.02274938746702   16.73891585840540
H         4.79490492110314   14.04672981459709   17.12519585181258
C         4.19002085711271   12.51036528116052    6.20799885696603
H         4.13715873314631   12.45692718997987    5.13082674009681
C         5.31373274040015   16.00629066264445    9.57979835542786
C         2.45169182686316    7.47794048678204   16.30766453661405
C         3.00439008162005   12.55452269911782   18.34069911640935
H         2.67629323808236   13.57241654575743   18.18783814489351
C         4.55973567584738   10.78610576692979   17.90026296768882
H         5.45364592275349   10.42003243752660   17.41659722735750
C         3.95231194685802   15.99584515677231    9.34309957517795
H         3.58344739687526   16.13540645329650    8.33873583862390
C         7.12662593855007   12.73941982700884   17.77295791633263
H         6.66599833079731   12.99533291063330   18.71560234190991
C         9.04699331490414   12.12616974694504   16.51158790705488
C         2.96859047970693   18.66610161504170   14.64373842393261
H         3.55001909337724   19.57395789485921   14.61431247498514
C         5.83332756280110   15.85637434166513   10.85213503055797
H         6.90068663891339   15.89050559558847   11.00209050559714
C         1.64054609902585    8.59891255743971   16.30030156213727
H         0.95012107443582    8.76821125682966   17.11082052395158
C         0.17054316982189   10.03227532671427    8.21838090775512
H         0.06175779509016    9.22280412841298    7.50157696377467
H        -0.38870912819007    9.76180321345433    9.11584671223172
H         1.22040472573126   10.12413768929555    8.49185297394345
C         8.47756584622571   12.45515659641174   17.72897201126699
H         9.08860226013988   12.48619057049319   18.61687738925176
C         2.70086717431091   10.41751859708488   19.33989676355282
C         2.27199570006360   11.72058517883667   19.16425053639534
H         1.38101941789767   12.06502940982840   19.66487002494830
C         3.83819076487810    9.93611883183331   18.71909826451878
H         4.14309993275101    8.91378029236947   18.87629475692356

