59
CSD_code = ZOLZAB | q = 0 | S = 0 | Stoichiometry = C23H30S5Ti | MND = 12
Ti       12.65196586092130    3.53234457131794   10.80572652318080
S        11.64775594558863    4.10810488669598    8.67698799590094
S        11.91997068616214    1.27849568428766   10.31245202855062
S        11.74325671910285    2.45758895435829    6.16425724707081
S        11.99636794579246   -0.06227292283401    7.62014385264130
S        11.91365659737338   -0.09390757367271    4.64903547043019
C        11.79685417651610    2.57007856415387    7.91918253977103
C        11.91402012941268    1.39972078362709    8.59574988288267
C        11.88182590645422    0.71995614894591    6.06290169351309
C        11.02118459038568    5.06374694365615   11.42197123663547
C        10.48171405255958    3.74968341746433   11.52392091028711
C        11.18991802373160    3.07334884468286   12.55788065240040
C        12.13947086780105    3.97441162928608   13.11156842854930
C        12.03622963416258    5.20652714928882   12.40757990002235
C        14.77495026687416    4.18359885164267   11.50915640577194
C        14.73621472155158    2.76265981277857   11.39978542412598
C        14.63347395099736    2.42397282549705   10.01597571919431
C        14.51004890511997    3.62243179250933    9.28233135642378
C        14.53442951675008    4.71114600550806   10.20793666161974
C        10.45308909718539    6.20770048191276   10.63926156290868
C         9.25553006162614    3.24594369242325   10.82883042836117
C        10.83030851282492    1.75865889091259   13.17904318711022
C        12.76730436759375    3.74112851670572   14.45351403847098
C        12.53407482722555    6.54996731495191   12.84996568498527
C        15.42910692718773    4.93231472923270   12.63164790807844
C        15.07166152245595    1.75474515393552   12.45872946658733
C        14.93716000014624    1.06190819806895    9.47381350775912
C        14.66673149974622    3.79367234262567    7.80334418487189
C        14.59308541290670    6.14390091469903    9.76922837749447
H        11.24327077565152    6.83955691348571   10.23282593580658
H         9.83111555852289    6.82150137773463   11.29559281920634
H         9.83609386970955    5.85798895881317    9.81484819122400
H         8.37252219004942    3.49615330210720   11.42124375797207
H         9.28960345212049    2.16353324703091   10.70725421678518
H         9.14622052332161    3.70001831740465    9.84445738319853
H        10.22893200417744    1.15191364746135   12.50630633287938
H        10.25230395919493    1.93506787598127   14.08967849948906
H        11.72185894379379    1.19169540943058   13.44838554716287
H        13.36322260474690    2.82997185779698   14.47689454696187
H        11.96905886744824    3.62306023579902   15.19051360328035
H        13.38100865730122    4.58099859067342   14.76761512132608
H        13.27330547201983    6.47134059535443   13.64167591396312
H        11.68678946501820    7.11881671626042   13.24146552441245
H        12.95121044234475    7.12347911939699   12.02343956173746
H        15.17543614515575    4.53257052585842   13.60843769445283
H        15.19675726991379    5.99250543108183   12.60627951441230
H        16.51136556407135    4.83086859282382   12.50745061638659
H        15.24178051039893    2.22891848163385   13.42249534945311
H        15.98358836601511    1.22185112122715   12.18098096185356
H        14.27453467485760    1.01245532050312   12.55683731448008
H        16.00798845374107    0.87091436439036    9.58225307593841
H        14.68919413969747    0.98314532437013    8.41752750725080
H        14.40086082264733    0.28193738967439   10.01470271381048
H        13.97067301499850    4.53117342090041    7.40304357279427
H        14.52354660898562    2.85592561326579    7.27078550291636
H        15.68094398768876    4.14522405768215    7.59699987049554
H        15.47375391618793    6.30083491408208    9.14244608724232
H        14.65936325308321    6.82353120894703   10.61584531301048
H        13.71313576098276    6.40037146416624    9.17309567449752

