126
CSD_code = ZOLZUY | q = 0 | S = 0 | Stoichiometry = C67H48Br2F6N2Ni | MND = 4
Br        9.18579542721158   10.39883211543155    8.98629761679924
Br       10.15151722256428    9.88764152015330   12.02972919782008
Ni        8.40534325728045   10.80485777815635   11.02766252715699
N         6.55700662534418   10.95422035484755   10.48421913261047
F         6.82059960763740   14.33555891104064    2.98353591912612
F         2.05870662178581   15.21795877162673   11.39578234044637
F         7.69768714012978    2.96044060963805    8.82976812137420
F        -1.42442286863406    8.01819638780898    6.75529139686769
F         5.46369772739991   11.49984727804548    1.33665218062038
N         7.81641746748670   11.84966685511631   12.65170628674947
F         2.62591704957347    8.81697970692607   14.64989450485361
C         5.84039223133992   11.39952105887801   11.45800676051598
C         6.65136669730598    6.73621622737614   10.05773118092870
C         4.80283779887943    9.19315486915118    7.12558857184082
C         5.96449238583101   10.36713851933660    9.35353799847856
C         4.11480378114615    8.56152836195399    5.93742961625588
H         4.52443005139749    7.55253258725420    5.80820645776338
C         5.95011817713616   12.64146071341754    8.27002307878679
H         6.91273209795146   12.75475864138781    8.78870972937319
C         6.15318661431896   13.14399934693753    6.85553207094603
C         4.41233897533479   11.50970433084126   11.69187403486663
C         3.97217861831648    8.07586460616869   11.38355321530536
H         3.62704550139329    7.80138596552844   10.39742131568286
C         4.28263878357400   12.23517128892979   12.90159416467715
C         5.81689429448394    8.97726274926186    9.30243101595264
C         4.90257326155944   13.38379559662693    9.06090857048237
C         5.33272616239732    8.26213162976403   11.60808806344009
C         5.22547065068304    8.40789576540917    8.18842743372207
H         5.10698331052760    7.33525864358198    8.14451781521001
C         5.27622904000400   14.20218826169589   10.11827124806815
H         6.32470654079050   14.34938777375811   10.32882228322064
C         2.62804705650541    8.42420005212535    6.18221631505587
C         5.53016023366608   12.58066403887850   13.47779150962197
C         6.31800894619551    8.15172103649448   10.47082802524362
H         7.27565935792349    8.60419328595507   10.80775817429632
C         5.01834856547831   10.56217799804285    7.16800986013613
H         4.73622460467294   11.17186896938696    6.32336932266416
C         8.65000030062965   12.36655103061254   13.64914673913587
C        10.39253165430899   13.42269355995352   15.52076519776914
H        11.05978418678474   13.84056772585849   16.25885428574854
C         3.27654352988368   11.10261406455274   11.03704408396622
H         3.32220064409006   10.54989335709393   10.11139378799229
C         5.96291477642831    5.63000479374760   10.53385330996106
H         5.15061640829431    5.75300507164018   11.23436454264759
C         3.05179741433126   12.58063859213373   13.46485076645296
C         8.61784116903690   11.88061535537303   14.96742384167429
C         3.10336580149790   13.33791017375228   14.65618938623880
H         2.18241817072673   13.63723218249143   15.13315049255271
C         6.60290995721253   13.94096999708842    4.25318404388424
C         4.43088320652709    9.34714715860578    4.67883388936195
C         1.93520425046269    9.31610893383220    6.99237894797476
H         2.46458518791835   10.12466620328968    7.47393463438130
C         7.70754402013228    6.55376144609309    9.16822453373639
H         8.25402243358611    7.41052068874662    8.80233915855711
C         3.54939084271627   13.22676532047601    8.77899151844275
H         3.24689347629962   12.60478892163760    7.94990833113197
C         6.53848042005420   11.98616756448367   12.61107759626577
C         4.31331560797855   13.69762910424370   15.20069895371894
H         4.32889540333109   14.28415644797549   16.10731674126105
C         5.62501951159947   11.16128592915166    8.25757997879348
C         5.35935952508229   14.12311169227490    6.27731612549644
H         4.56474513283544   14.58642918755976    6.84270778696315
C         3.47354746278513   10.08060032661476    3.99269280053574
H         2.44858833411436   10.08554889582446    4.33221526896425
C         5.54494414669762   13.32628449385202   14.63233888040871
H         6.46950047260443   13.62706314817687   15.10273421566724
C         4.32950481613922   14.83019387085697   10.90753710185820
H         4.61326839928260   15.45632158394680   11.73905325268093
C        10.46187074136462   13.84075925123767   14.20669004950425
H        11.19258125506953   14.57630419145610   13.90568919257839
C         5.76586207574404    8.59777250752523   12.88429382793104
H         6.82382602403523    8.71997151979246   13.07419409595972
C         2.99347797939301   14.63720260720074   10.61428358686447
C        -0.09553041016973    8.15025472265832    6.56469133121599
C         2.58800687587379   13.85533927326438    9.54788856104216
H         1.53636592965292   13.74147645673036    9.33808795220686
C         6.31252802852828    4.35434388105385   10.12417758089810
H         5.78638075089424    3.48658813159045   10.48943385365255
C         7.35882655885585    4.20234127177302    9.23490647347305
C         9.49306751827151   12.43618838177009   15.88650602678828
H         9.48843919229441   12.08644826636418   16.90537518825268
C         9.60853508725410   13.30981061574439   13.25321711800487
C         0.57260307410548    9.18563414977215    7.19120348715147
H         0.02698023453771    9.87405461058801    7.81741757015614
C         3.81536040616753   10.81026633838857    2.86664237179636
H         3.07745408901105   11.37989699561173    2.32438398090762
C         3.05581045505108    8.24710100853462   12.40427087633967
H         1.99906242460336    8.10888329077878   12.24026579545013
C         5.74756705449735    9.36146572681882    4.22726855880174
H         6.50048325025615    8.80525420303019    4.76555976103713
C         1.92698994109374    7.39274240906929    5.56705644610336
H         2.45349202178033    6.69654822250597    4.93127671107369
C         1.90359547356886   12.13351403648090   12.77285278185847
H         0.92569369901358   12.36276262424273   13.16804884977833
C         2.03006605903481   11.41909308482136   11.60678938429944
H         1.13947996327879   11.08611691747397   11.09486904230505
C         7.18621611572876   12.57613765424895    6.11284698949508
H         7.81488265469618   11.82150952929521    6.56268061960542
C         5.57869101392620   14.52741047360122    4.97104348550352
H         4.96813727815566   15.28888708732182    4.51228002203065
C         6.10572488006239   10.08503486735454    3.10711112199345
H         7.12203923451546   10.09850283150671    2.74796030405639
C         8.06663495606245    5.28797284789778    8.74948018518002
H         8.88503939170369    5.13617714447190    8.06448743412761
C         0.56425308537009    7.24795514335793    5.75057485182810
H         0.01422441916035    6.45161462282136    5.27523427293814
C         4.86288839928320    8.77597148885329   13.91717102268779
H         5.18650321139256    9.03605884099844   14.91230519702427
C         3.51606408975549    8.61083090076568   13.65640480807098
C         5.12847496658542   10.80027539657222    2.43728589763844
C         7.41552461297262   12.96836688060855    4.80916445712917
H         8.21433549474647   12.53740698176262    4.22812386595954
C         7.73406848944041   10.70913831052020   15.30987018017757
H         8.16589479166350    9.82926752690885   14.81836509287904
H         6.73763691543132   10.86268725643613   14.88909929542134
C         7.58656814107845   10.41554283046907   16.79745947316054
H         6.87996423694867    9.60030541436120   16.93955858344318
H         7.21028084788814   11.28699910490175   17.32987358482428
H         8.53385151872351   10.11228120379117   17.23509972223636
C         9.69115465464187   13.78064835260696   11.82835299341202
H        10.72897314600840   14.01538636593071   11.58599169490534
H         9.36478477436892   12.97781058162973   11.13742325083541
C         8.82531715702856   15.02115283263418   11.61167032541739
H         8.83434810357141   15.31828551870132   10.56495432851389
H         9.20368752307702   15.84893452246729   12.20782456798521
H         7.79678446305823   14.83198336213481   11.91847466496171

