43
CSD_code = ZOMCUB | q = 1 | S = 0 | Stoichiometry = C20H16MoN3O2S(1+) | MND = 9
Mo        2.53697062789478    3.49328442496095   16.57308547056457
S         0.37307927834470    0.28897830169132   13.98145846371811
O         4.51923068223979    1.23829643924135   17.30190693392628
O         2.53169077049617    2.90249768114944   19.60098037328102
N         2.00742589838421    1.94364069993530   15.14668794826322
N        -0.04771905272518    2.03481252507089   16.08439345675613
N        -0.48372930337812    3.39398741528231   17.68975552661156
C         0.77434338301730    1.49537251863318   15.15041581981606
C         2.02854285323612    0.38035182470035   13.41792987775184
C         2.61381718731189   -0.34139372102429   12.39167537462999
H         2.03896739710988   -1.05614255292573   11.82587108138770
C         3.95063882454431   -0.11832001494402   12.12359650252371
H         4.43145436432361   -0.66863626428079   11.33094301721071
C         4.68511204647375    0.80312910172551   12.86707823331616
H         5.72911714739915    0.95237082704137   12.64191186262432
C         4.10255119203653    1.52634789603081   13.88736823035866
H         4.67789879998758    2.23101519351114   14.46733561979524
C         2.75500001754558    1.32110189983981   14.17226865266183
C         0.51626406767929    2.98392192968698   16.89609814106085
C        -1.37898320571103    1.85639062355436   16.38391952637904
H        -2.00212376308284    1.15431115118214   15.87022767427092
C        -1.64202199654709    2.71934560454356   17.39010008871856
H        -2.55722176905463    2.90657010155718   17.91367802972263
C        -0.42805321779042    4.43594062536662   18.68975734020953
H         0.62289842417277    4.68915596511431   18.85598388636253
H        -0.84939017249059    4.05823583245169   19.62486725943764
C        -1.18893441211098    5.64969899154503   18.23002538959801
H        -0.91999593628316    6.01216670039283   17.24658144114721
C        -2.11808348596819    6.25199425379857   18.94579715470174
H        -2.39559767844246    5.90428430921591   19.92683131352405
H        -2.62857489898252    7.12835693298900   18.58790609648844
C         3.04461938300249    4.78688700913861   14.68285852833119
H         3.07729323148663    4.49995233981704   13.63842010310201
C         4.15070157035150    4.87073103168889   15.54402941648937
H         5.17981860254822    4.66702512337334   15.27979924488286
C         3.71972133829576    5.45672551878735   16.76088016869653
H         4.37210782099681    5.82349734147841   17.54615430696866
C         2.33370358465267    5.76271558733429   16.62938064408212
H         1.77349836503887    6.40586543938973   17.29543025888783
C         1.91526568413011    5.32908408333271   15.34844389482361
H         0.97509057224421    5.57977611201000   14.87063308575793
C         3.78473023079830    2.06384536470366   17.00982778903872
C         2.51737554682422    3.15352783190919   18.48330677212139

