30
CSD_code = ZOMCIP | q = 0 | S = 0 | Stoichiometry = C13H11AgClN3S | MND = 2
Ag       -1.90409471978106    8.81373075717619    0.11828730193688
Cl       -1.28973316547688   10.93708237648067   -0.18468824366354
S        -2.34668862273443    8.36445999179288    2.94777135040313
N        -2.65156555346200    5.81987185937188   -0.68190218477249
N        -2.80458912674053    6.12914983570723    1.43090904808332
N        -3.07844691747751    5.99456763965579    3.73663431783521
C        -2.49052696819622    6.75833047537934    0.26466406094329
C        -3.06255960137137    4.63127836217556   -0.13569244680012
H        -3.25203662776438    3.76370691748049   -0.73339882899414
C        -3.15777348494823    4.81772682917372    1.19786808029537
H        -3.43302264246696    4.16714568664832    2.00039968455820
C        -2.47170604316816    6.02816222508791   -2.09856629940706
H        -1.85786923763440    5.22044275172362   -2.50693731762867
H        -1.94541510944210    6.98550507159475   -2.22347250845000
C        -3.79844611081015    6.08698095109851   -2.80043391116355
H        -4.46965569652627    6.85153932264297   -2.43291139094910
C        -4.14664098996982    5.28404434146278   -3.78706574657517
H        -3.48191545566323    4.52304371933844   -4.16317521665290
H        -5.10330744124351    5.36300970525110   -4.27300578389933
C        -2.78219593363213    6.68016237361535    2.69265812493871
C        -2.59899560948883    8.08621421291774    4.65486814289945
C        -2.46320264288965    8.97624512115646    5.70499109181970
H        -2.16450532628527    9.99679965904969    5.52435521754731
C        -2.72100032640192    8.51635729073589    6.98197479308352
H        -2.62210560524921    9.19173065360111    7.81794185780264
C        -3.10655957756641    7.19585258302112    7.20762078156591
H        -3.30147115287647    6.86805905521625    8.21756383142944
C        -3.24341628839180    6.30446199975681    6.16547808972542
H        -3.54090916416333    5.28079885306348    6.32648326199535
C        -2.98844485817950    6.74693937862184    4.86998084209389

