49
CSD_code = ZOMFEP | q = 0 | S = 0 | Stoichiometry = C18H20MoN2O7S | MND = 6
C        -2.51461941979305   11.31858640838343    5.53890666011095
C        -2.93931428712268   12.54530338464584    6.06290126678396
H        -3.03580885154133   13.36714453538054    5.36938320257650
C        -3.20372710395385   12.68696247756332    7.41714451655997
C        -3.06128814418792   11.57908492495710    8.27084994838769
H        -3.27794973874495   11.71131984580805    9.31807281820332
C        -2.64867895059449   10.37395934769964    7.76951769218789
H        -2.53322335269633    9.52883213533883    8.43158662824010
C        -2.35641157199454   10.20415163035349    6.40513637029400
C        -1.90958469504283    8.94259119599818    5.91580732574756
H        -1.82926679834658    8.11337878394049    6.61912354307035
C        -0.69944750430751    7.42126228214562    3.15601740506288
C        -0.15067186668953    6.16182318831182    2.63684081487603
C        -0.13586249216549    5.00508287268360    3.41004607808607
H        -0.53419839978428    5.03896169173581    4.40994137439780
C         0.38953459502678    3.84192661296667    2.87456468372869
H         0.40623689682849    2.93702291040478    3.46314822803887
C         0.89779621971224    3.82544915863409    1.59056857320086
H         1.31209442249068    2.92572192768765    1.16354358762140
C         0.89019983696838    4.98543871348267    0.80993126873469
C         0.36100424949499    6.15434772785955    1.33885721156088
H         0.33102101770476    7.07937714039794    0.78280807906191
C        -3.73603398050551   14.99656300891385    7.22371564902268
H        -2.78623906611353   15.26860133585931    6.75496263913394
H        -4.03818719796443   15.78269602394749    7.91366631094521
H        -4.50275813125992   14.87640880768488    6.45264652572694
C         1.45390996635319    6.01107036842769   -1.25947006429445
H         0.44843695027535    6.38804023590732   -1.47020887093974
H         1.92095302831186    5.68779760081187   -2.18849810754672
H         2.05279828311910    6.80821514083784   -0.80925063323773
C        -5.26046583644751    9.33028357583322    1.06851528377221
H        -5.14459279745994    8.26972138214069    0.87618581657995
H        -5.71797975768457    9.80628088643045    0.20933686489011
H        -5.86763723459889    9.47062268855477    1.95377111313683
C        -4.18032947383973   11.66631286593665    1.82442729241679
H        -4.76363054211199   11.53415122668078    2.73067750171049
H        -4.78810760971495   12.07165324725813    1.02308677397926
H        -3.31689828700258   12.30030246097336    2.00884660789647
N        -1.56741463357401    8.72683115962522    4.68746400670090
N        -1.13208825935169    7.47933713455604    4.38232898240703
O        -2.29480335565634   11.20609725206503    4.24949905689351
O        -3.60740945850720   13.83202106146320    8.00810717451260
O        -0.74341007944697    8.45918192306414    2.38162529075336
O         1.41497692602272    4.86698018728759   -0.43723421915879
O        -1.57200572997330   10.87098092643951    1.67309983219106
O         0.22100289498059   10.52665612709420    3.78703776109588
O        -3.24015418946997    9.33287501919135    2.62812644400434
S        -3.54910471950517   10.02791600526690    1.32336802102126
Mo       -1.24846177015236   10.15037345137225    3.15296966986298

