28
CSD_code = ZOMGEN | q = 0 | S = 0 | Stoichiometry = C7H16NO3Re | MND = 5
Re        1.71810699123849    0.48710671843988    2.60157630027642
O         3.32712670904879    0.33339569248547    2.21124000124364
O         1.07829459973693    1.00924748064689    4.04399320973371
O         0.75491040077666   -0.63491375238143    1.82257644301023
N         2.89801102950213    3.07838378974419    3.14459583124997
C         1.03457476676173    1.97819662508166    1.06583812545373
C         1.12361236291240    3.43560025005996    1.47172482414239
C         2.53130571202332    3.81420772855495    1.94079643872479
C         4.34596922040347    2.90370700293387    3.25010129237114
C         4.76774068212041    2.07779773891569    4.45782308339943
C         2.27993902035154    3.61593630047299    4.35446707595875
C         2.80185676586345    4.97593754134578    4.82939371727523
H         0.00216400366992    1.71754888358361    0.82175341661095
H         1.66843189371779    1.78385017509964    0.19535809724599
H         0.86753461016661    4.04902197191727    0.60203398714594
H         0.39342992891425    3.65092958927862    2.25288340321341
H         3.24012793455256    3.55170144602870    1.15158865993167
H         2.58611841856706    4.90133396458804    2.09449945550931
H         4.66170800249470    2.36912061535474    2.35022914945471
H         4.85747637116463    3.87910527752167    3.26569945695864
H         4.17296574621795    1.16674822794564    4.49913351949246
H         5.81406562676103    1.80176692105741    4.35239251396096
H         4.65138936611994    2.62322514505648    5.39050366854144
H         2.41613734742592    2.87977996785560    5.14624954557132
H         1.20618260821730    3.68764904608349    4.17611208963927
H         3.85582263096595    4.92845424617912    5.08932642751622
H         2.66527843829346    5.74587080080150    4.07336272308159
H         2.24761881201097    5.27389060534922    5.71524754328652

