28
CSD_code = ZOMJIX | q = 0 | S = 0 | Stoichiometry = C10H11AuF5P | MND = 2
Au        7.05857111425614    6.24396066485240    4.57572262050455
P         8.61695099590325    5.13219650583491    2.43674746231784
F         5.38700813577135    7.65338388841676    6.96864763477592
F         3.22046858328998    6.83445263819314    8.35862188536218
F         2.07177221046446    4.41390180561122    7.81121179258005
F         3.13434393018903    2.83033816299700    5.84124577771699
F         5.30356695151218    3.67014416948158    4.45551999155047
C         8.68148614783084    6.61236905242507    3.38679578380708
H         8.58780419968193    7.46041481448426    2.70941264088563
H         9.64197277959891    6.65099108624103    3.89940929040788
C         9.95530478777740    5.01644085370892    1.18227777565047
H         9.87773079333982    5.86829595470657    0.50635400048216
H         9.88807652185126    4.09176285368914    0.61131084125881
H        10.91795772120301    5.06020198320112    1.69235914001981
C         8.81365006709334    3.62008223446371    3.41630858270919
H         9.06483464748351    2.78432350335094    2.76292209365853
H         7.88232767267933    3.41414279972608    3.94191875129959
H         9.61215635571192    3.77112323021601    4.14292949271739
C         7.09853592082264    4.95195416245070    1.46389564193537
H         6.86721750728583    5.90497137761117    0.98836734976603
H         6.28239102058134    4.67328820233838    2.12855987581379
H         7.23537310186199    4.18522931115338    0.70133434833752
C         5.42908017766238    5.69409208860827    5.65978442454405
C         4.84907249027431    6.45353903881323    6.66738433626956
C         3.73494514009053    6.05207423514032    7.39547322716715
C         3.14723494822188    4.82343949594075    7.12137301359719
C         3.68761854795714    4.02341580786890    6.12296113855246
C         4.79984752960318    4.47857007847287    5.42975108630810

