33
CSD_code = ZOMJET | q = 0 | S = 0 | Stoichiometry = C8H22AuPSi | MND = 2
Au        4.06353094264622   10.47245433914769   11.22388870044191
C         5.31052047507925   11.05703048006070   12.73863521019103
H         6.31757545923868   11.27994356943889   12.38968310924511
H         5.43242054452135   10.31052011444648   13.52514104532492
H         4.97021590313460   11.95966280758918   13.24365837633060
P         2.46827772657225    8.30756154237955   10.70514786707536
Si        3.35123376441726    9.55044317704082    7.96758918132041
C         2.75010328044614    9.75199125944938    9.75377245253296
H         1.80579609273179   10.30285196687394    9.79132344526446
C         4.90117119854677    8.44437284696618    7.84151977978197
H         5.62585845538276    8.69149070413172    8.61038532894816
H         5.38451286696553    8.58909771863447    6.88109988742855
H         4.66240069154158    7.38768904595612    7.92432554283606
C         2.02167088004549    8.83222661737407    6.78507109537287
H         1.96664139747107    7.74849178725137    6.82690411873533
H         2.24345214314179    9.10386096245070    5.75755162802438
H         1.03436423721740    9.22068487528897    7.01618406239973
C         3.78319956059303   11.29915567295560    7.35099370520328
H         2.91679882201130   11.95180114265080    7.37383379040812
H         4.14758666795640   11.27229541327777    6.32929568616975
H         4.55137722043438   11.75446467596988    7.96648348323098
C         3.87709286761551    7.22812109009000   11.09818707578673
H         4.48578074184080    7.10418303371620   10.20528774229892
H         3.50946372362431    6.25571080810902   11.42832727226354
H         4.48030391356831    7.69086873786094   11.87718548599777
C         1.32898767968947    7.10966021270505    9.87898752969630
H         0.41853507631539    7.63525095326360    9.59062806477211
H         1.07401491196747    6.27226280171161   10.52729795728659
H         1.81346648823621    6.73648509203853    8.97775491496736
C         1.58663969462899    8.59749505818507   12.27162550274770
H         2.26465422980833    9.05424413563823   12.99042055126953
H         1.20136712105788    7.65433744179355   12.66009715138079
H         0.75728522158094    9.27898991551704   12.08241325526820

