77
CSD_code = ZOMJUI | q = 1 | S = 0 | Stoichiometry = C30H33Br3CoN4O6(1+) | MND = 6
Co        3.70981700743078    6.61599821188712    7.94328501447507
Br       -2.50838513874144    7.73848455643620    4.60768987439005
Br        3.39962032661012   -0.47328593349504    7.10938539051424
Br        1.26181888684572   13.17364244425301    9.53336178995817
N         3.65939363046627    7.96388777905627    6.62986796559041
N         5.14895214427390    5.76124705485574    7.01271159840062
N         4.70602068314612    7.65441463241929    9.29267393617222
N         3.50540772286730    5.80066782208389   11.66164545305225
H         2.99729767417098    5.10569089045915   12.19750513376059
H         3.45245888931864    5.30015958676969   10.21669307420913
H         3.07046962126925    6.70465391870701   11.81397089795726
O         2.55875008230490    5.55974909222984    6.91765423170516
O         3.79506637089052    5.13309501325978    9.23950838196013
O         0.50185321351013    3.96012180365694    6.73156135241679
O         2.22831108519093    3.36661678319349   10.53383786950596
O         2.17352751909055    7.30270725678642    8.75389179108600
O        -0.27586603303757    8.23459007436307    8.49838368946403
C         1.49369865169998    6.05789925194845    6.40770342869712
C         0.33328970718706    5.22447819853895    6.27346683749806
C        -0.82405434854513    5.73721321753016    5.73974342009935
H        -1.72009646969481    5.14132774780727    5.67054076385535
C        -0.86260241526444    7.06351788020201    5.28643231892749
C         0.23663946087300    7.87241361010165    5.33191223254757
H         0.19463808102097    8.88705368465931    4.96741204308704
C         1.42811902801236    7.38247125767945    5.90193611294584
C         2.59998992817198    8.18098712478863    5.92075219238943
H         2.60429585120298    9.03337144961492    5.24055166963285
C         4.83280110827176    8.77741189745059    6.36344958128003
H         4.84065909169569    9.63740295549277    7.04260765857892
H         4.77568959085332    9.15940234656246    5.33834461862368
C         6.13372827820145    7.98134262761433    6.53024773991789
H         6.46725630749371    8.00458306788922    7.56457195590790
H         6.90604193531425    8.44988047556308    5.91978817765141
C         5.97960164290344    6.52709343531271    6.09567911683586
H         5.51415584680006    6.49504755356562    5.10299788703341
H         6.96978150858351    6.06460193158959    6.01949402154364
C         5.21974920430132    4.48270082766560    6.92162208061399
H         5.91290868257431    4.04931091816366    6.19817645173769
C         4.42932126281852    3.51716496329490    7.64327363799647
C         4.35940135166577    2.20393460362106    7.15915563361910
H         4.91836966962257    1.91769707717108    6.28257368874108
C         3.54032637671892    1.29522824757256    7.78873751892725
C         2.80278092325745    1.63583327646580    8.91878239755169
H         2.17532441240775    0.88971176406325    9.37820563795861
C         2.88099057329343    2.92181317909533    9.42818783524122
C         3.69041007596213    3.87430391299637    8.77995421680461
C        -0.56814273324403    3.05139794596658    6.59662093961043
H        -0.19213448886006    2.09743372755395    6.96226650234165
H        -0.87032512878876    2.94039947798065    5.55138854229973
H        -1.43167793655752    3.35660304348532    7.19552548370570
C         1.28823178672788    2.50775317505733   11.14716128990760
H         0.82929480311280    3.09166554354254   11.94278953105282
H         1.77282072716027    1.62687166102242   11.57744896501355
H         0.51566045946752    2.19592477456502   10.44065569818794
C         2.00488283499541    8.56322593752659    8.93482978078989
C         0.68846089397812    9.12717268860391    8.81393575826646
C         0.50080877781352   10.47913353516273    8.98534590769776
H        -0.47224088151445   10.92572092698124    8.86041367648445
C         1.58141173236712   11.30842654776130    9.31824167514588
C         2.84111204751689   10.80775330390506    9.49414751030774
H         3.66021879068040   11.45568588361049    9.76429576281057
C         3.06942601641967    9.43076533535769    9.30060610933406
C         4.32864945471977    8.85105174727057    9.60914423825187
H         4.98797879851920    9.46194019583238   10.22942101385958
C         5.87237284599009    7.14445546116037   10.00380449811525
H         6.71947737903128    7.82219397696596    9.83827059818892
H         6.13058838677195    6.16513197668999    9.60008973099497
C         5.67240724831878    7.04143757384847   11.52909005004959
H         5.16885847837166    7.94157897637365   11.88843311404823
H         6.66406826347644    7.01790293027922   11.98399202681903
C         4.91921206030490    5.81726129280898   12.04912579148366
H         5.37864576330131    4.90381784208933   11.66083910320765
H         5.03276008283533    5.80940577385114   13.14112584043555
C        -1.59788836106931    8.70097259125168    8.33090668272312
H        -2.19216056941566    7.82063463145255    8.09564707821079
H        -1.66995137504269    9.41541828161301    7.50612633346640
H        -1.97935516039766    9.16042376949515    9.24708244633722

