40
CSD_code = ZOMJAP | q = 0 | S = 0 | Stoichiometry = C13H19AuF5PSi | MND = 2
Au        3.73420859360154   10.26181212156326   11.89577535757715
C         3.08139381055961   10.28698811086493   13.82321449733549
F         1.04290515028380    9.29666024110195   13.17444371165553
P         2.61545297004381    9.78984516188924    9.33413341267644
Si        5.08917040961670   11.69756339850916    9.12492773340301
C         1.83119217560052    9.79321982887105   14.16687144478264
F         0.09677263815539    9.27822883797483   15.71199399397625
C         1.32066116632279    9.77343825795496   15.45710219270836
F         1.63331755454419   10.27492371656446   17.75143856698473
C         2.09653604718970   10.27830869288688   16.49220331373848
F         4.11386448333332   11.28322763303332   17.19975859925718
C         3.35666405309578   10.78902840654725   16.20650622097511
F         5.04116245932603   11.29146949607886   14.65974133593905
C         3.81358800455956   10.78147890206231   14.89388958963478
C         4.23257008588878   10.18165485506566    9.90101808055487
H         4.82074154059304    9.28210795562012    9.69995231696625
C         6.56716749628446   12.13126851861624   10.23932404618056
H         6.25060523570636   12.36940596025694   11.24922770055954
H         7.10802510182947   12.98722510122896    9.84969368195339
H         7.26605202468379   11.30403758042101   10.30514744736023
C         3.92276785922215   13.20168309758794    9.00096211390895
H         3.10135018167972   13.03705177655019    8.30904202217917
H         4.47190854890994   14.06869823766618    8.64826896195927
H         3.50607183367174   13.45755578675418    9.96998780191030
C         5.75170173732360   11.29873136226639    7.37243441404345
H         6.26065104757910   10.33945957253480    7.35498043172903
H         6.47056807828220   12.05052322347108    7.06152633239942
H         4.96924708895037   11.26933707008928    6.62010652812907
C         1.26727611943708   10.90180646595472    9.82715171937257
H         0.95616588819609   10.64587110781311   10.83906472860439
H         0.42717379476448   10.78634411541240    9.14162188949217
H         1.61591012276736   11.93153678975344    9.80993135385104
C         2.46159627432885    9.73014302816709    7.50310095222710
H         2.60306437171487   10.73386869800482    7.10524141459848
H         1.48580382631197    9.35250998631253    7.20039648877549
H         3.24241917786866    9.08166721223709    7.10638325514305
C         2.07574661584454    8.12821035014163    9.83095897237045
H         2.85009183524190    7.40594235218781    9.57368303885342
H         1.15200955371985    7.87473646733260    9.31041843105834
H         1.90682504297128    8.11183052264923   10.90647590518038

