93
CSD_code = ZOMKOD | q = 0 | S = 0 | Stoichiometry = C37H50ClIrN2O2 | MND = 6
Ir        4.31089191639414    6.22154237948142    2.60017029695605
O         3.97832075613140    9.65109628449071    0.00695903709768
N         4.20684827808367    5.21523649867567   -0.25638396606254
C         4.49897384441605    6.23154700278073    0.58335298502776
Cl        6.25847865902993    4.92426435733662    2.39724371697790
C         5.51679806750607    6.62485893402514   -1.37754646541960
O         3.61894515685379    8.91054207947560   -2.07953439270079
N         5.29215011206713    7.09477538679632   -0.09998617645409
C         5.57531452129062    5.13943293983950   -3.71664553447554
C         6.25741037367427    6.36586282939084   -3.63082573670744
C         4.82444184269020    6.67078743987572    4.64214414912964
H         5.88464971859886    6.45617651368258    4.75283815566429
C         6.23134623260654    7.10793935806107   -2.46211679756872
H         6.75893606677283    8.04721518742370   -2.42122038379147
C         7.02550914182153    6.87828366743751   -4.81151980633328
H         7.80252224045392    6.17173299477544   -5.10182594391931
H         7.49399232993745    7.83185300441509   -4.58264560151727
H         6.36556144062236    7.01581094987155   -5.66706741393773
C         5.61482133970418    4.34405996806884   -4.98626305748378
H         5.20359902315988    4.92151770130445   -5.81344184746932
H         5.03588191469703    3.43010494894680   -4.88199755202093
H         6.63947856931968    4.07871982885442   -5.24453611826578
C         3.50553611717917    4.02095190060957    0.16086549440563
H         2.90822350673627    4.29565334493019    1.03969896291968
H         4.25313164511679    3.29750588748044    0.49382551945936
C         4.82604989263097    5.40613984061950   -1.47119820778376
C         3.02960746838063    7.89293866042343    2.87950176629320
H         3.04640286277364    8.57131282757777    2.02983583693632
C         2.26215150053589    6.71704148352168    2.72899433605583
H         1.71344150555742    6.61490568994922    1.79245032632116
C         2.75986393576474    2.07103434635559   -1.24893662669491
C         3.94691934226924    5.60510799622436    4.65372501225484
H         4.36817463412442    4.60731404119649    4.74387205839039
C         7.99567135150379    9.38173164121139    1.25101949933300
H         7.66093422954148    9.39776337683033    2.28981812286760
H         9.08463866720823    9.31756797440632    1.25067922495962
C         5.88433623391493    8.25811934035585    0.51643288064934
H         5.52029302934492    8.25862131963262    1.55411600374063
C         1.56808887310342    6.00521338631990    3.87112224212095
H         0.70044734122974    6.59093764572018    4.19559630980387
H         1.18668687981514    5.05474302141919    3.49040447599509
C         2.49766923129760    5.72905004169038    5.06789261579048
H         2.40712345917216    6.52577805288877    5.80807372124783
H         2.18403573908366    4.80255816088822    5.55265168616527
C         7.41034594483389    8.16339744020514    0.54727106898842
H         7.80677791289503    8.09797381577767   -0.46608046039609
H         7.67985482807805    7.24704631730777    1.07520557739643
C         7.54745969945822   10.66155278745578    0.55167576955484
H         7.91363359952424   10.66257285209301   -0.47738266412030
H         7.96817821667017   11.53242497430815    1.05673145681214
C         3.20052199110777    9.29431180568175   -1.01802745861677
C         2.62705731691726    3.42115703393914   -0.90678611921848
C         5.40095074325767    9.55741207306090   -0.14405737985008
H         5.62941151570570    9.55472812765149   -1.21555599244487
C         6.02553542577221   10.76404035935626    0.55054503802525
H         5.65463414909647   10.79518792810109    1.57678249062078
H         5.70177454637245   11.67678655969972    0.04721622340264
C         4.85941117933666    4.65542609805857   -2.63534442338747
H         4.33670903259839    3.71591273675439   -2.70771513864527
C         0.87121579090532    3.63530433402761   -2.53814093261803
H         0.13312226311061    4.24734950327524   -3.03721103967205
C         1.66374609964585    4.20312001150893   -1.55203676855852
C         3.76693641202061    1.17776256852955   -0.58301577647519
H         4.78070634303826    1.54892014719350   -0.73163420676483
H         3.71053798742686    0.17481042765118   -0.99907037856093
H         3.58213180173806    1.11108712055630    0.48816774894156
C         1.46877028049931    5.65078125115198   -1.21608478470789
H         1.53660476551300    5.81643514196460   -0.14371317314904
H         0.49388367695901    5.98766473908742   -1.56140071929634
H         2.22949341666604    6.26295197819844   -1.70106811110630
C         3.20479137556907    8.58905312071197    4.21620279584647
H         2.30837668389640    8.43531951140291    4.81912399064502
H         3.29712089999141    9.66454339575673    4.04994122917424
C         1.72682759952062    9.41356435708439   -0.66041396547030
H         1.50492003759365    8.54250312135326   -0.03184338267282
C         4.45130748684878    8.09602817164180    4.97622731067064
H         5.29959318727560    8.73562342965058    4.72191858758447
H         4.29419582295598    8.18717295912359    6.05655375794611
C         0.87578282799630    9.35027877584108   -1.92503655657396
H         1.02101080078945   10.24870299949067   -2.52019440634318
H        -0.17696727008139    9.26827263161248   -1.66762428166877
H         1.16243510163292    8.49524627005752   -2.53039389101118
C         1.94588974155606    1.53555416243207   -2.23780251119377
H         2.05532889797212    0.49236171890686   -2.49956746829632
C         1.00035324951102    2.30291807342692   -2.89831704163266
C         0.14071465994852    1.72061071129321   -3.97878566014235
H        -0.90372345780932    1.98307076959067   -3.81997005075147
H         0.22999516334288    0.63759263049758   -4.00725379342076
H         0.43922119907563    2.11627635299025   -4.94969856117485
C         1.44173820356078   10.68154643265016    0.14317979829316
H         2.02931163852486   10.70223126204609    1.05622398066272
H         0.38729903340617   10.71970046307798    0.40615635560592
H         1.68237318565707   11.56426031149516   -0.44518889018195

