67
CSD_code = ZOMMOG | q = 1 | S = 0 | Stoichiometry = C31H32N2PRu(1+) | MND = 9
Ru       -3.31866421963036    6.31862061685234   14.16904046347630
P        -2.89582707811290    4.06572399661096   14.57424392536317
N        -0.57934548598126    6.76891837975855   13.19745772442558
N        -1.65754898056483    5.97325420066714   11.52165426420724
C         0.29068883577484    6.77467149668047   12.14586523355515
H         1.29874092823927    7.12467208795935   12.22444018538125
C        -1.78012904034239    6.27953827400124   12.82921577789484
C        -0.39113172386761    6.27758638085810   11.08684003279956
H        -0.08372184057015    6.11850975986299   10.07403874906379
C        -0.35912504804799    7.13052277972012   14.57521552651768
H         0.32322175962824    7.98286191882975   14.62238799570059
H         0.09472545311297    6.28083975955189   15.10257304012057
C        -1.71927263747925    7.48084030596139   15.17445588046725
C        -2.31188738157465    6.60100624077062   16.09296065353610
H        -2.98289935065591    7.02906068435121   16.83327762408434
H        -1.73377682181082    5.75999019626158   16.46923295431043
C        -1.93937457875029    8.97303264087655   15.28656004940976
H        -1.88048732906830    9.46609499840485   14.31680075317288
H        -1.15096765600055    9.39018945999362   15.91673703203002
H        -2.89095125405410    9.20916124081257   15.75558427440963
C        -2.65501527841941    5.36969185770314   10.67956663462547
H        -3.14315257584598    6.11896807645351   10.05334828204391
H        -3.39993907506493    4.87622214668689   11.30254323565028
H        -2.18793430179512    4.62812595373784   10.03183866127898
C        -4.67664865629661    7.37149007758137   12.67843050420009
H        -4.44564813983377    7.72704604275998   11.68404623980368
C        -5.20608750524622    6.09456501453930   13.00584705249470
H        -5.53079117320589    5.34923410277091   12.29213242486650
C        -5.55869867767079    6.11591905448487   14.39205371862006
H        -6.14486454007741    5.36574967906597   14.90464600577536
C        -5.19363808238791    7.36968215957572   14.91199139899139
H        -5.43778503909166    7.74103882408043   15.89806445344514
C        -4.64419958876016    8.14837230180439   13.85250741287909
H        -4.42570625317419    9.20476158353352   13.89481060583728
C        -3.76141611747504    3.29833951885649   15.98383444451029
C        -4.43848994783176    4.05583350209245   16.93027096902259
H        -4.45258465911183    5.13301628736862   16.84295955092193
C        -5.09267370575879    3.43480900810043   17.98092128973202
H        -5.61914076047650    4.02895475657408   18.71263304424635
C        -5.07234353543267    2.05513119538765   18.09206567335684
H        -5.58441145076121    1.57146791978291   18.90944369975310
C        -4.39249014118649    1.29384133645018   17.15270738287472
H        -4.37285918448602    0.21827567674457   17.24002683599482
C        -3.73982054380306    1.90832345786119   16.10191985868437
H        -3.20785706957870    1.31619019702918   15.36983276865727
C        -3.43511288743642    2.90463729286421   13.26443586049337
C        -2.58844335252563    2.15300258341749   12.45782275207267
H        -1.51895607027223    2.19828504258690   12.59015191434964
C        -3.11613645690266    1.30718047358824   11.49554033049524
H        -2.44950011939586    0.72311050185510   10.87918324372785
C        -4.48570686940662    1.19776377625231   11.32980141537922
H        -4.89009266030954    0.53690899050798   10.57903662486616
C        -5.33711181836471    1.92540799153289   12.14705404435777
H        -6.40681870067288    1.82679748692130   12.04026414751248
C        -4.81536329124069    2.77022991304792   13.10682031617128
H        -5.47877879328328    3.31655364829783   13.76333020208044
C        -1.15740234156291    3.60954767440197   14.90337881848057
C        -0.20047143495454    3.74845042063888   13.89844467850663
H        -0.49747103713361    4.08247753212537   12.91545322119994
C         1.12854332343644    3.45923823069169   14.14818134563356
H         1.85704819043696    3.56123998616716   13.35759673811418
C         1.52403477531853    3.04069078140950   15.40869274847221
H         2.56097089413955    2.81528678972507   15.60319706918387
C         0.58361731040768    2.91590652870867   16.41731545315667
H         0.88650129387330    2.59555439507959   17.40238076763455
C        -0.74843623899012    3.20024416874723   16.17035464976707
H        -1.47178426264524    3.09864064157705   16.96653937013743

