77
CSD_code = ZOMNIB | q = 1 | S = 0 | Stoichiometry = C37H36N2PRu(1+) | MND = 9
Ru        1.16988465578007   10.38719888122423   10.67109608701655
P         1.39238177942585   12.19864573881448   12.11908180319793
N         3.29824540701461    8.87078583793566   12.01683009562522
N         4.31820415215193   10.24557132340923   10.72361800176226
C         4.63055865876326    8.59914399550584   12.14488283933079
H         5.00981929165028    7.83278758905959   12.78822791576984
C         3.09069574884347    9.87918873546099   11.14627254565789
C         5.27337383336764    9.46278248018687   11.32399044671781
H         6.31776074407947    9.58673935150603   11.12366818883981
C         2.18050527905009    8.31188853366843   12.73507824134780
H         2.09795452120393    8.80792605845972   13.71165884153931
H         2.34926125897405    7.24370106865356   12.89334899052208
C         0.92839618883167    8.55243621991512   11.89503802687049
C         0.00035045495598    9.52204630917365   12.30722925122616
H         0.11311506410860    9.98165472707287   13.28659696305906
H        -1.03706342310521    9.37190742039503   12.01909611155882
C         0.46648338875849    7.30539622092309   11.17366451791086
H        -0.46813089078474    7.46717827771129   10.64323482277086
H         0.28948075278769    6.52483686681871   11.91676256975801
H         1.21930981381451    6.93384614797901   10.47906068813619
C         4.63477247666455   11.31616884122503    9.81359526529117
H         5.57101788285517   11.77915360994139   10.14691589821302
H         3.84411131403419   12.06835188321555    9.88869366540991
C         4.78635715074802   10.88444318944826    8.37168550544243
C         4.66915174284980   11.84786793771331    7.37678534292022
H         4.47302537821999   12.87465247869981    7.65290606838647
C         4.81198152240540   11.50226373372333    6.04554896846983
H         4.71959394029463   12.25872584832041    5.28157352954773
C         5.07199900936437   10.18771170744792    5.69404961878803
H         5.18134018853025    9.91614748095355    4.65578924277496
C         5.19482664653980    9.22491568463484    6.68010423397354
H         5.40213673155647    8.19966216765201    6.41360271045168
C         5.05534740685048    9.57081586447366    8.01456950625281
H         5.15317311802090    8.80709412460113    8.77310692114400
C         0.36628358444758    9.36666870380944    8.78925959041333
H         0.18007592278708    8.32830240378537    8.56037667994100
C         1.53398587347129   10.07492046951827    8.44974596518498
H         2.40213763215725    9.66325876499895    7.95532877986210
C         1.31128156795475   11.45146449281357    8.72627821031741
H         1.94222683542695   12.26072661932144    8.38640174828732
C        -0.03765638775150   11.58680013347469    9.18202824973894
H        -0.57101968916936   12.51842147188461    9.31495987460877
C        -0.60612854004657   10.30321978626067    9.24447127595519
H        -1.64726278759002   10.08035239956852    9.43425866205889
C         1.91739258520309   11.84804054639281   13.83436384199349
C         3.17963169267454   11.30414460983216   14.07107171396812
H         3.85027146498072   11.12540851191700   13.24306655952349
C         3.58162805391384   10.99553151169616   15.35771286656136
H         4.56612582266703   10.58592427251616   15.52859231531252
C         2.72372624617503   11.21175395471229   16.42456212915231
H         3.03773702655938   10.97121197123496   17.42825854421071
C         1.46216081875058   11.73466200971814   16.19661643343464
H         0.78756572071282   11.89900930247246   17.02281860965509
C         1.05760483339209   12.04994481595551   14.91078216946252
H         0.06987371840703   12.45528583461018   14.74660363596827
C        -0.10194029991545   13.20838135679611   12.38860635850818
C         0.02931283130630   14.49072102648872   12.92120079150603
H         1.01064222246057   14.87548946936510   13.16176287484382
C        -1.09365606406819   15.26432529894358   13.14446077614572
H        -0.98669329390862   16.25641144641848   13.55587324679792
C        -2.35355389305575   14.76939645639732   12.84296347997805
H        -3.22776327960462   15.37776636231654   13.01610582137896
C        -2.48908258312928   13.49337049401227   12.32276363473821
H        -3.46942556758918   13.10416559692612   12.09245359775881
C        -1.36732393339911   12.71434728091975   12.09697670713351
H        -1.47053838373837   11.71711255347497   11.69331253151218
C         2.54114128424466   13.51564501999563   11.57074155484647
C         2.15555126844908   14.23268703990308   10.43688021962815
H         1.20099470723031   14.02064856673421    9.97560814156567
C         2.96659205801638   15.22392478337920    9.91964638561145
H         2.65395042519999   15.77342031214428    9.04436389965816
C         4.17612594438796   15.51751547574550   10.53075312921339
H         4.81329826519216   16.28923207534475   10.12756962162143
C         4.55255863808590   14.83085651234781   11.67205307183275
H         5.47994405003050   15.07517188063443   12.16774680410999
C         3.74205984808659   13.83591544337349   12.19443535708306
H         4.04174257198340   13.33150662592350   13.09980071323378

