85
CSD_code = ZOMPUO | q = 0 | S = 0 | Stoichiometry = C32H34CoN7O11 | MND = 6
Co       -1.40801108313640   13.90085413100208  -12.37070274601179
C        -3.58173743388736   12.22470011284785  -11.34142814767728
H        -3.58482900115257   12.14677238149704  -10.25213728191128
H        -4.23515238638255   11.45134150872285  -11.75395023953776
C        -4.08693909633685   13.63797130699970  -11.69154479699412
H        -4.43765769813122   13.71046912598421  -12.72016673043636
H        -4.89021705989234   13.93899342711193  -11.01062338655687
C        -2.79271250481516   15.04939203385254  -10.29543571856147
C        -1.33816044670608   15.25633103512218   -9.99583213407156
C        -0.87068523559356   16.02908467500567   -8.94302684797924
H        -1.57846476068750   16.61722663449429   -8.38059840077110
C         0.48312937523980   16.02411411951524   -8.66567083937953
H         0.91361263543647   16.63078887109438   -7.88364978925579
C         1.31162563051509   15.19429367216982   -9.42102937448006
C         0.75830451368957   14.43437510915616  -10.44683436383173
H         1.38649600453876   13.78897050279147  -11.04078784389185
C         2.76981914830156   15.15441664244319   -9.12034896690411
C         4.82703484327707   14.20659398008598   -9.69540302349676
H         5.18544018303517   13.43330252663149  -10.36942389137563
H         5.05605573953450   13.95271491402396   -8.65822681542447
H         5.28937096340682   15.16645161767331   -9.93294849569600
C        -2.16161894639193   11.27125844501361  -13.08088863038232
H        -1.11862345573234   11.04601868756370  -13.30461742383384
H        -2.72774437381197   10.33847012530014  -12.98234583231281
C        -2.72479630527493   12.13764565853986  -14.20163805394557
H        -2.39485321834203   11.78227817530604  -15.18454148445128
H        -3.82288207629442   12.13196098318578  -14.19747237140529
C        -2.06743690733118   14.29752702174336  -15.00556272363512
C        -1.41615880647265   15.55500283494259  -14.52460557144643
C        -1.16241114810483   16.61885368116183  -15.38075300755178
H        -1.45330748742573   16.50905705029248  -16.41443299301062
C        -0.54864274944835   17.75279528756520  -14.89116438577782
H        -0.32087104923236   18.59697026073483  -15.52248791768745
C        -0.22640202079799   17.77587425320638  -13.53514280225063
C        -0.50463831517956   16.66311805710992  -12.75081505770673
H        -0.22101576633350   16.71167759773628  -11.71042312794882
C         0.42606653458898   18.93141803500046  -12.86509644606638
C         1.38526595318783   21.04104433594085  -13.16219252567670
H         1.56986479955622   21.72303184769525  -13.98800408788388
H         2.32332034811722   20.75221999326956  -12.68426394423854
H         0.73945400157794   21.50620821406894  -12.41467191188370
C        -1.35045997872220   11.38731796441276  -10.80795894975245
H        -1.37637169558675   11.99179255241884   -9.89570736772318
H        -0.32305932398953   11.37391639879476  -11.17957060843411
C        -1.75585188657458    9.94309647587388  -10.44577090708496
H        -2.81147431302770    9.89419044857106  -10.16417530445197
H        -1.56757052293222    9.26957578917227  -11.28498391174681
C         0.09789808214457    8.63194671674724   -9.53726179657836
C         0.81591191195098    8.31666541859554   -8.25955857351915
C         1.85809948039177    7.39455343169905   -8.25763812134614
H         2.13902070255998    6.91850819030715   -9.18366541314084
C         2.49147785831986    7.12253621745972   -7.05948231109650
H         3.30408101202570    6.41473465183314   -6.98897798873484
C         2.06375054644282    7.78353860782977   -5.90910794737759
C         1.01319482713936    8.69519451155920   -6.02238989991645
H         0.65100073488577    9.23332622485042   -5.15756298866102
C         2.73573038220745    7.49280093477345   -4.61574853327965
C         2.80053384687430    7.96802731449040   -2.32745396071666
H         2.27325328833944    8.61622509958750   -1.63261826585527
H         3.86440773357561    8.21229657821361   -2.35100593098085
H         2.68759771992957    6.92108154105855   -2.03893819493424
C         1.22584557007833   13.60233435001111  -13.56355316042684
C         2.18508336844357   12.62106947894109  -14.23412066032905
H         1.86500515926735   12.49173032463828  -15.26595363586872
H         2.15503459320372   11.65644979883296  -13.73497925793837
H         3.19146476487583   13.02858575344809  -14.22486551930824
N        -2.18568532991124   12.04157622599712  -11.82015271600141
N        -2.93794327782687   14.48467038483774  -11.49602490032048
N        -0.53417576038693   14.47714113204245  -10.74354369674004
N        -2.22705367964930   13.47316291031065  -13.97657894611870
N        -1.07510702188279   15.56581377444214  -13.22579922013698
N        -0.95306094620878    9.45822065046081   -9.35524710562075
H        -1.08470811271514    9.81831385470001   -8.41984724530656
N         0.40715635922181    8.95339210838898   -7.16249309810088
O        -3.66639243784164   15.28957809748528   -9.47066874499756
O         3.29630519881773   15.83144012487410   -8.27414414680382
O         3.42098393557285   14.27816446426887   -9.88745804373073
O        -2.40157959908700   14.10425097070621  -16.16835239791548
O         0.63418868401559   18.98906307152455  -11.67832984216009
O         0.74771263442396   19.90155889259062  -13.72349965728248
O         0.42527836695847    8.16767133033404  -10.61111929792136
O         3.64593670242916    6.71270426937521   -4.49181654805552
O         2.21459334421463    8.19339051243927   -3.60241549633638
O         1.48295341887307   14.79575546590367  -13.50397432497872
O         0.17560231813339   13.04514811142995  -13.08609522895330

