61
CSD_code = ZOMQEX | q = 0 | S = 0 | Stoichiometry = C12H30As8OsS10 | MND = 6
Os        4.25581637012848    2.70178990457092    3.71579551617972
As        2.90021081501136    4.28844618019444    2.48417703922209
As        4.24375076933770    3.62526078916802   -0.54365636494997
As        5.30302236442021    1.52881382831620    1.84471348232890
As        5.37807349808380   -0.81483629089911    4.42238071393805
As        2.48664168863148    1.05710045141942    3.90413042102772
As        1.70221928859949    1.73425317572971    7.11770980772259
As        3.92467614848482    3.88400678398648    5.82947729606842
As        5.45925235600853    6.25978514835871    3.79179006097893
S         2.21744526452232    3.98851183957523    0.40040734937434
S         4.41816513505559    1.41443014403354   -0.19719191178244
S         5.53090409229167   -0.65510137976749    2.12696869200511
S         3.09956946780340   -0.97373533187815    4.58962385255885
S         0.67261690809918    1.31222158575042    5.14534324040723
S         1.98049296589529    3.95273312703032    6.91800394311213
S         4.21773081085720    6.07578229118431    5.72694676134696
S         3.72969831591821    6.34875702804305    2.29309935954033
S         6.14879908199974    4.22387879214539    3.53496228960982
S         5.71300565105999    1.24148574256781    5.01151789056939
C         1.13602101463317    4.68185198490200    3.31314568780905
H         1.35924970631061    5.08555312627549    4.31412288854648
H         0.60939064258626    3.72267891042433    3.44760572864848
C         0.27583961173200    5.66769481414257    2.53405390540797
H        -0.62742088497103    5.90075657821307    3.09361856747859
H        -0.00833037480249    5.24686304178424    1.56847112971447
H         0.82863052530212    6.59320647338702    2.35930539586942
C         3.57378881164921    3.49820991849768   -2.42303628505321
H         4.42981424696178    3.21287005161958   -3.04387682979521
H         3.28195496472283    4.51339334460403   -2.70744963670691
C         2.41672486636356    2.53435099930617   -2.63734948054615
H         2.10970338139207    2.54691089936722   -3.68065049354495
H         1.56653364873281    2.82205854834019   -2.02167822341557
H         2.71169887967556    1.51931805050545   -2.37704365488995
C         7.16219003509079    2.03843180654590    1.39424579352241
H         7.72721706136384    1.97543420419519    2.33285750486868
H         7.13711984366303    3.09291675548356    1.09047679278700
C         7.80056250247732    1.17910938382411    0.31494238835198
H         8.83652487238301    1.47617574614698    0.16644407906332
H         7.26897201953567    1.29323691930251   -0.63296416189986
H         7.77948293441367    0.12362994205043    0.59686108807556
C         1.59555426967266    0.61241851647755    2.18295074382630
H         2.39125627329148    0.23217584804700    1.52190090311278
H         1.22078960880565    1.55453287609161    1.74980235810292
C         0.47702694105042   -0.41467906321116    2.29537560122277
H         0.09582928689431   -0.66366945209276    1.30743886628660
H        -0.34267158591113   -0.02214935358384    2.89899836130506
H         0.84925455242210   -1.32621686514430    2.76767282581765
C         0.02616221887340    1.82030847237106    8.20439068779813
H         0.31902150412638    2.13231027286987    9.21256035238875
H        -0.34204659103543    0.79225606346362    8.26950092289481
C        -1.05719814039299    2.73735701568403    7.65738009151513
H        -1.93382864114908    2.70335397857622    8.30027990053801
H        -1.34818267111415    2.42283889750333    6.65684662452620
H        -0.70133863266466    3.76520697667877    7.61325928034751
C         5.14362022787023    3.41806253175175    7.31855504762355
H         6.15987378768525    3.50837399731291    6.91451135679413
H         4.97021687239625    2.35923576668368    7.55050038284479
C         4.97228080363415    4.27899866247532    8.55963445818539
H         5.71236591830975    4.00455843010473    9.30834446794201
H         3.97749318913925    4.14061808951734    8.99028376990719
H         5.09916150667827    5.33697302997844    8.31791137348940

