153
CSD_code = ZOMRUR | q = 0 | S = 0 | Stoichiometry = C78H69Cl2N3Pd | MND = 4
Pd       10.27266645225367    3.99873778511420   29.15031596526821
Cl       12.52756134324374    3.61017914921382   29.25756812867489
Cl        8.00309871553699    4.33887145058250   28.93113855760456
N         9.48546825200141    1.70638603923854   27.36878321946909
N        10.85489817548216    3.07424787667804   26.41712391402890
N        10.47030530454716    5.51727791391142   30.74840771052568
C        10.18519008382107    2.83807510202669   27.56192317085508
C         9.72502030204035    1.22642080345261   26.10594439578486
H         9.28970347800221    0.31808881805912   25.74815465606341
C        10.57671710924551    2.08707552122707   25.50768078495054
H        10.98227275107959    2.08606737518101   24.51917182542881
C         8.56638803745335    1.14629534638522   28.30145335342118
C         7.20565416759796    1.09887134362002   27.99009749724459
C         6.32213999508544    0.61918851274874   28.94836094778768
H         5.26569019911422    0.60993559502963   28.72321048952511
C         6.76353974574290    0.15988538733880   30.17773172184296
C         8.12792827436075    0.14357054642027   30.43185630822575
H         8.48266982968910   -0.27089148646114   31.36305836349168
C         9.04306403094100    0.63855970898140   29.51742691119764
C         5.79565813599227   -0.31363922111449   31.21691310971139
H         6.19654896218949   -1.16462014535776   31.76378821147521
H         5.60987582143250    0.48794913300158   31.93238149184950
H         4.84581949606274   -0.59282397953969   30.76771167547785
C         6.69270732819331    1.47541117101838   26.61793200623807
H         7.32142522228309    2.27903213716333   26.21514588067229
C         5.27696537823384    2.02166723397245   26.67332834336696
C         5.04720027895122    3.20357019666495   27.36977283971569
H         5.86712327569590    3.69016460015273   27.87523575205899
C         3.77868947827723    3.74877760785937   27.43074903598153
H         3.61752400964913    4.66749656575365   27.97547319043606
C         2.71895858258697    3.12214877988258   26.79591316950868
H         1.72734290690024    3.54853522843791   26.84074032198474
C         2.93921997630432    1.94473747309178   26.10453052386178
H         2.11925654158631    1.44606152371795   25.60765301006744
C         4.20998868257642    1.39662854729447   26.04331458004599
H         4.36323296246116    0.47668898751665   25.49805991200729
C         6.79135189934097    0.28696881393603   25.68309849745340
C         6.60093225418263   -1.01563357232906   26.12891032271066
H         6.39170476831407   -1.20138090224798   27.17227395061314
C         6.67512840519175   -2.07992475173254   25.24668738612238
H         6.52488584480713   -3.08646924650931   25.60955603366322
C         6.93641027147567   -1.85878267368709   23.90567138753463
H         6.99276883731504   -2.68995834697672   23.21841079677812
C         7.12385036137259   -0.56400241493870   23.45161633862480
H         7.32801710526915   -0.38037212121286   22.40691459925252
C         7.05233685660285    0.49900848503134   24.33337541772059
H         7.20812966944272    1.50628893900830   23.97668339506821
C        10.53567719864125    0.60016522464897   29.77123719327346
H        10.91810457900525    1.63213665660699   29.68445956046284
C        10.91395277361101    0.13177844245022   31.15677508238018
C        11.40408738091176    1.04833354987746   32.07679164699341
H        11.52572163096761    2.08291233664339   31.78269657025992
C        11.74607183088860    0.64740737027389   33.35595000237342
H        12.12041942842762    1.37136413404555   34.06505127864240
C        11.60870588711336   -0.67933581141453   33.72563437718745
H        11.87217372359344   -0.99483385917032   34.72455142306039
C        11.14190147148678   -1.60445604921771   32.80633468202664
H        11.04516392422396   -2.64348568559267   33.08691633146996
C        10.79965456866960   -1.20298441671150   31.52766991599890
H        10.44276443984343   -1.92837580163675   30.81024081577948
C        11.26620076089944   -0.24431100233179   28.74843423207446
C        10.64478771128610   -1.27087967856907   28.04963702835323
H         9.59265435200185   -1.46988225661626   28.20168535812068
C        11.36421579274502   -2.04279150801042   27.15347305822831
H        10.86801787240748   -2.83576087745641   26.61231352947973
C        12.71325455483299   -1.80589641574777   26.95481347817773
H        13.27435485125002   -2.41643956134495   26.26184271338941
C        13.34141559821613   -0.78605524994047   27.65191658869114
H        14.39377225262451   -0.59015948789594   27.50108670407251
C        12.62059242319507   -0.00991624752598   28.54085024577763
H        13.10805589283626    0.78828440386376   29.08055751871414
C        11.77746788642793    4.14918510305046   26.26002838033002
C        11.30284194636294    5.46761584058193   26.30560865338098
C        12.22899504380150    6.50134835691877   26.35489764379067
H        11.87975669384710    7.51911752265478   26.44703238584972
C        13.59168178915629    6.25681511718063   26.28565047078300
C        14.02832866459789    4.95094934952016   26.11819194655538
H        15.08539450129157    4.75513788130080   26.01636870472581
C        13.14376264406725    3.88327801368902   26.11912053805463
C        14.58258408153394    7.37622279826725   26.37325783378845
H        14.08695735117849    8.34266362147944   26.32436448814742
H        15.12823795136096    7.31318850662271   27.31448766250310
H        15.30955307783225    7.30971162818570   25.56581311176102
C         9.81296880212037    5.73393219081487   26.24058610267631
H         9.34747183268942    5.37178745905329   27.17042869028337
C         9.14528999570469    5.01546364649720   25.08391982502509
C         9.81368558960817    4.73946203981273   23.89817219296875
H        10.86531005330438    4.97151046349060   23.80205150468385
C         9.14307529797292    4.16080845277921   22.83483816060497
H         9.67641723460094    3.94503317284337   21.92010123781009
C         7.79395993712323    3.86879603247111   22.93705015471167
H         7.26919730473447    3.43123837093012   22.09993070125945
C         7.11949014910565    4.14380860646039   24.11590196864674
H         6.06639793281575    3.91756097861008   24.20812655879382
C         7.79325239454014    4.70914942352378   25.18325733416160
H         7.26596750200130    4.91921879684973   26.10216824448270
C         9.42807764614562    7.18923547687362   26.08582521421150
C         9.88201898269958    7.94323899868186   25.00903795852252
H        10.54516249083827    7.49445898545547   24.28392703465897
C         9.48863081822769    9.25997907697015   24.85770349247277
H         9.85387145848158    9.83622734380225   24.01988929688678
C         8.62315994218152    9.83831352643562   25.77152040560958
H         8.31629645452269   10.86696706004719   25.65213336193007
C         8.14188051462760    9.08610152069908   26.82832319866229
H         7.45068645900473    9.52382144603690   27.53387085712811
C         8.53844568577907    7.76871394884373   26.98062793729416
H         8.13319264976405    7.17909019181037   27.79153106818105
C        13.65028693396716    2.47122613014077   25.91899585220689
H        13.06453575820079    1.80204115091631   26.56205718310330
C        13.45473810518351    2.03688883166737   24.48256976514101
C        13.49896090634460    2.94518169050910   23.43138491356530
H        13.66938772787447    3.99266763602137   23.63532304002822
C        13.32850828834534    2.51868083261731   22.12539283284657
H        13.36261855835363    3.23696423374440   21.31888604962026
C        13.11923623277205    1.17822729262607   21.85140157336979
H        12.98626218909028    0.84654863065333   20.83225989814438
C        13.08459935895523    0.26474242429434   22.89206200928338
H        12.92514494600740   -0.78363722184032   22.68665799207652
C        13.25102962337746    0.69097458878006   24.19701204559186
H        13.21365963834233   -0.02159934405675   25.00787325581123
C        15.10107234545247    2.32066519109255   26.34147645075007
C        16.12022136026156    2.07947776343073   25.43035747414230
H        15.89984961184556    2.00173297477335   24.37561309698074
C        17.42874647147850    1.93497830775538   25.86130822457788
H        18.21023026368668    1.74634749125736   25.13907227121473
C        17.73574558105493    2.03111680500798   27.20649867446805
H        18.75673555441204    1.91608960386307   27.54048294459829
C        16.72479967489674    2.27870529680337   28.12054569778427
H        16.95402385210468    2.35954367110271   29.17310282282915
C        15.41859570048332    2.42196261393424   27.69179033650654
H        14.63660101156859    2.63307248594090   28.40451481358259
C         9.25084167121559    5.79862083663406   31.52697129986849
H         8.40561905663394    5.86847449838582   30.83201014124661
H         9.36102675750153    6.77109505441848   32.03432454472014
C         8.94854259785049    4.73713866371915   32.55024080968646
C         8.93098480407272    3.39046899700937   32.20332253957188
H         9.14416600232343    3.08357680155224   31.17494385738353
C         8.63737707980721    2.42936503267164   33.15347406149309
H         8.62623711024562    1.38768612425251   32.87595361377536
C         8.36068120102956    2.79794089110785   34.45881625161540
H         8.13476957909751    2.04353447563773   35.19786936120389
C         8.37649181695401    4.13567278031447   34.81257787006212
H         8.16336199593661    4.43189082655134   35.82934921064817
C         8.67037856370232    5.09757120797495   33.86288822511806
H         8.68222396404717    6.14165665464511   34.14431275768204
C        11.58961971659043    5.39988367464365   31.68720548991708
H        11.42356001836752    4.56285785881887   32.36512266704939
H        12.51806804500968    5.22828559431376   31.14495070667914
H        11.68842548405754    6.31886722791188   32.28104876863112
C        10.73586627286050    6.65295449617006   29.85552577848707
H         9.88055443894822    6.82241116679920   29.19488673543313
H        10.91010309018798    7.57222266954966   30.43528135087735
H        11.62849181985066    6.45128539034128   29.25187198267993

