155
CSD_code = ZOMSAY | q = 0 | S = 0 | Stoichiometry = C78H69Cl2N3O2Pd | MND = 4
Pd       13.11025545187114   11.39170836501499   16.49869860808117
Cl       10.86060530674579   10.98536743490208   16.40566673607622
Cl       15.37900569912452   11.76259719271658   16.72775917837842
O        17.42890505505233    7.08385070357777   14.47123649648186
O         8.79811523102707   14.55683526078543   19.39454486421916
N        12.54371327220458   10.46282538958420   19.23517069213908
N        13.92222112814691    9.10820189842204   18.27727257538064
N        12.88817787173915   12.89679323292160   14.89322470110067
C        13.21178900229566   10.23381950450789   18.08807421396349
C        12.83494769854479    9.47780818506984   20.14290517016586
H        12.43276801478626    9.47289800055597   21.13272839672739
C        13.69116917623254    8.62462205712851   19.54044333967722
H        14.13551660045922    7.71959802915639   19.89523444480032
C        14.83820387397471    8.55217406771953   17.33970228416205
C        16.20018211890928    8.51604533460938   17.63818629991869
C        17.09044520212345    8.03491236030652   16.68558811223927
H        18.14196031768310    8.03875107989095   16.92341554440559
C        16.63532222490543    7.56376537109881   15.46363266186548
C        15.26378593690694    7.53067230531083   15.21428851080522
H        14.92890153775838    7.09913719331663   14.28545470743718
C        14.35769592711328    8.03094675741596   16.12792136797808
C        16.72236627754051    8.90901191631477   19.00289110518348
H        16.09735756971117    9.71911127678082   19.39779043553840
C        16.62839553129756    7.73393112945580   19.95508228848469
C        16.40903525285431    7.96846918821315   21.30844453637156
H        16.28190308342828    8.98300702143768   21.65498929147807
C        16.34080269572493    6.91882615179954   22.20614614430874
H        16.16857695531697    7.12035166701444   23.25324585904221
C        16.48996387306200    5.61461285718694   21.76500999927558
H        16.43567797122763    4.79352927683261   22.46436440415669
C        16.70940959704859    5.37082840557566   20.42055910346410
H        16.82836200935502    4.35681377213469   20.06701147692695
C        16.78050617420357    6.42196749150932   19.52232284191733
H        16.95435027700057    6.21748319694950   18.47599102810570
C        18.35942177732159   10.64185285922750   18.24466066925070
H        17.52890019777604   11.14513077187249   17.77373982114280
C        18.13895142191599    9.44983534231372   18.92698250532200
C        19.63164259018060   11.17410693184820   18.15197380953563
H        19.78551895066557   12.10040382791205   17.61807919128597
C        20.70417578106379   10.52448183229522   18.74083142806126
H        21.69890118827779   10.93993110394887   18.67016790334791
C        20.49266575577259    9.33824356314710   19.41985044309278
H        21.32248548620874    8.82253937211837   19.88169555364091
C        19.21829663061798    8.80270083615332   19.51228109580947
H        19.07156111072657    7.87503618107896   20.04621445036738
C        12.86505932528616    7.98901734607349   15.87930782825569
H        12.48041691993526    9.01898804741159   15.97900033577741
C        12.14145336797879    7.13320414528086   16.89706536192511
C        10.78579471741917    7.35790323357840   17.10756447091443
H        10.29275424914007    8.15556853359135   16.57226567013943
C        10.07097942439331    6.57260683994190   17.99319861805579
H         9.01785822098085    6.76158250368362   18.14687669333070
C        10.70666971741441    5.55303790181352   18.68394073326657
H        10.15038105965671    4.93534271417713   19.37439604052602
C        12.05694693315176    5.32586494069915   18.48233493307492
H        12.55853474994900    4.53280804903588   19.01838417829884
C        12.77057098470046    6.10734891055232   17.58969563248254
H        13.82347310048140    5.91616861398875   17.43414506808160
C        12.48702422107738    7.53720286717783   14.48820053837373
C        12.58383711323064    6.20475518393336   14.10547660278234
H        12.92761073134134    5.46763940696007   14.81704267392519
C        12.24019864674283    5.82057339877129   12.82183056232897
H        12.32228677622602    4.78295403474718   12.53191722944294
C        11.79154927113120    6.76109437011214   11.90932216277546
H        11.52700410152831    6.45875715381295   10.90662472676054
C        11.67384767511676    8.08655228321403   12.29025969894161
H        11.31425029698864    8.82294425801126   11.58626937175085
C        12.01565894727705    8.46979648185787   13.57469769364347
H        11.90738994716226    9.50287769631179   13.87935745064214
C        18.82505346181013    7.14771737298234   14.63995964473025
H        19.25119384269583    6.77821440719082   13.70870643871252
H        19.16086855752480    8.17484416582414   14.81199963179390
H        19.16052799321643    6.51326761143546   15.46700638443324
C        11.60942682238327   11.52582377086224   19.40082415376308
C        10.24432320680942   11.24372043769938   19.54758137384833
C         9.34771325802271   12.29552221853994   19.57026655430160
H         8.29107865661276   12.10978711596294   19.67608051292772
C         9.77511180082759   13.61204667197648   19.41393773901747
C        11.13464970596611   13.88124183531816   19.33071525380324
H        11.48933877773938   14.89551130568054   19.24808805728533
C        12.06442977704035   12.84926871162102   19.36012451755633
C         9.16679737505296   15.90418182287551   19.22664196643029
H         8.23381780234557   16.46529774891905   19.21881221868219
H         9.79433373168017   16.25759409674567   20.05159436652677
H         9.69218225675214   16.06309979363149   18.27942738947004
C         9.75587232182204    9.82437406115143   19.73901616016665
H        10.34801405184778    9.16753982850138   19.08921003615791
C         9.96107719768708    9.38235813774512   21.17164320940269
C        10.19360343280266    8.03884254022076   21.44613705949894
H        10.25018768306661    7.33453215494604   20.62918282109416
C        10.36274827331016    7.60465368214803   22.74819217181062
H        10.54381505255178    6.55813253682779   22.94491213218372
C        10.30232395161389    8.50774454778543   23.79662958030309
H        10.43580340093345    8.16965984243307   24.81362573647067
C        10.06604604657917    9.84588964004834   23.53325587181258
H        10.01166398932645   10.55587362230612   24.34595558358810
C         9.89294767143266   10.28044559513785   22.23027398347088
H         9.69907083903809   11.32510682255535   22.03383773266946
C         8.30520868360854    9.65817893982758   19.32114739554110
C         7.29408576712460    9.39046414320135   20.23355812507928
H         7.51958381364846    9.30418902573832   21.28640780413848
C         5.98632301400227    9.22973430453772   19.80627104894639
H         5.21106525295347    9.02122841277449   20.52966985990775
C         5.67203938101869    9.33632726038530   18.46366781563625
H         4.65144899920093    9.20993274157205   18.13266965452370
C         6.67502219681077    9.60963560738904   17.54835613232385
H         6.44040136876345    9.69848371964390   16.49771452585430
C         7.98055755113677    9.76849287513472   17.97347993136378
H         8.75627659599623    9.99754138882686   17.25973035063280
C        13.55134036339317   13.13548679575725   19.41283984275337
H        14.01265755543277   12.77852983571863   18.47890743921195
C        13.91759388997823   14.59603144671783   19.56247356318910
C        13.47473178895357   15.34012493448821   20.65110806043463
H        12.84163027201500   14.87526600067342   21.39298590336414
C        13.84193791715930   16.66540760207729   20.79314692603586
H        13.48541092169092   17.23377082208926   21.64016379941656
C        14.67154232528297   17.26251179208789   19.85819529920682
H        14.95734995631551   18.29804707347837   19.96964819843379
C        15.14522415601042   16.52003497593833   18.79114307475783
H        15.81037257491094   16.97219694666554   18.06995548028001
C        14.77387864451590   15.19411433292060   18.64778075480733
H        15.17364078646498   14.61243019640591   17.82854714160248
C        14.23842675134128   12.42682526619307   20.56404689597636
C        13.58284044654963   12.13600545864408   21.75323024716934
H        12.52661298452853   12.34341022440559   21.85465758994862
C        14.27266420497745   11.57371459178078   22.81310192971968
H        13.74967405347993   11.34712493803449   23.73109255876609
C        15.62744460801191   11.31265830695775   22.70355153307826
H        16.16680897125058   10.88931183499962   23.53866459597883
C        16.28839166351563   11.59974428523331   21.51988944745561
H        17.34568676322919   11.39682308101992   21.42141982415651
C        15.59599922668839   12.14894722225706   20.45619237443833
H        16.11186898808832   12.36950829743502   19.53334967941163
C        14.10946134023555   13.20190562723702   14.12654304186952
H        13.98243486906676   14.16857391523024   13.61197547256715
H        14.94508739188351   13.29565186818297   14.83022998525214
C        14.44746490914169   12.14186539835802   13.11255492912482
C        14.49109704321673   10.79717087560681   13.46509829669658
H        14.27093825014912   10.48821675164842   14.49143287501782
C        14.81962772863331    9.83901613207750   12.52332118355282
H        14.85604214206864    8.79959306031412   12.80629646455833
C        15.10474286354732   10.20927802672069   11.22029437057379
H        15.35927717659725    9.45739669496858   10.48825839525218
C        15.06203271764571   11.54478605201985   10.86044600723555
H        15.28160396503951   11.84229787849817    9.84542141374453
C        14.73387733365912   12.50349236783889   11.80209781790786
H        14.70190390276239   13.54604337308177   11.51637743527584
C        12.58400293932734   14.03114398434594   15.77479789422927
H        13.42343687635853   14.22178600901873   16.45021251906376
H        12.40073643751957   14.94359329701576   15.18650590383546
H        11.68547570966602   13.81232956224570   16.36293690343729
C        11.78269914139621   12.74565290442088   13.94256674252707
H        11.98069688178276   11.91317551878511   13.26783318255799
H        10.85383145682409   12.54793528362609   14.47517158895649
H        11.66450024262859   13.66054402664840   13.34597592471694

