43
CSD_code = ZOMVUU | q = 0 | S = 0 | Stoichiometry = C12H16N6NiO7S | MND = 6
Ni        1.06601347079349    6.01858341180229    2.65114964374457
S        -1.16847349448564    7.40513843668395    2.76678537440399
O        -0.91506024942117    6.11612732510475    3.39931172494289
N         2.77150446043295    4.96175878363620    2.53329562865316
O         2.39121753015608    7.21842490096762    0.89826332749522
H         1.54790275327628    7.61399704775232    0.63460184364948
H         2.78634927418099    7.83731892196790    1.52346396910509
O        -1.58641000505652    8.40800707435700    3.70280070130424
N         0.53856046323028    4.97120883882019    1.34595276929312
O        -0.57438594022480    5.18884026711159    0.78946588463636
H        -2.02109018216456    6.42990369495597    1.19002479233151
N         1.59072675958110    7.27813165360574    4.07030670151675
O        -0.03593593523033    7.87301005433485    1.94866988333829
N         1.00823058591593    4.79081891991911    4.71925814874044
N         0.93647722766401    3.05956243915282    0.02807125041422
H         0.06283642951093    3.34814716738075   -0.39955461837548
H         1.64415625507072    2.84070482645508   -0.65876209117200
O        -2.34600209931166    7.15993483764376    1.73865590641112
C         1.32571948498453    3.98525296256203    0.99311504363791
C         2.58705756708839    3.93421493325318    1.68092671669190
C         3.90941175316621    5.04938671967189    3.20139106562052
H         4.00837408451660    5.89407871304650    3.86765643697463
C         4.93051003148170    4.12279054033667    3.06356169913034
H         5.84787037510733    4.23731511098014    3.61768814521082
C         3.56257502471521    2.94799940180012    1.50039426658092
H         3.37615385193527    2.12406735522240    0.83059641131811
O         1.75309268668633    8.61985144813076    3.65272104485857
H         1.08216023122828    8.70700304698942    2.92636915885365
C         4.74683241180051    3.04886810652683    2.20033981221964
H         5.52019142771351    2.30526118215239    2.07784162057841
C         0.85722301816165    7.12780531565689    5.12556549718981
C         0.79236918791162    3.52843513572702    5.03284996643195
H         1.08006472672445    2.80029780128901    4.28544974473819
C         0.67265695727175    5.73897853258303    5.59779570698497
C         0.14343941064664    5.43590273753551    6.84776529527704
H        -0.07993759649874    6.21447628197000    7.55999370762247
C         0.22872324638559    3.13033865184727    6.23872125281712
H         0.04650257259114    2.08698503303890    6.44239309065932
N         0.34537205927249    8.15976402618798    5.83133413217199
H         0.31518661826725    9.02493516119833    5.30232363167761
H        -0.49516044023475    7.98394112728409    6.35728676264933
C        -0.08588111801079    4.10669061844706    7.16775194873706
H        -0.50992487682552    3.84224145491055    8.12520700093684

