75
CSD_code = ZOMVOP | q = 0 | S = 0 | Stoichiometry = C30H39Cl2N3Pd | MND = 4
Pd        2.84505184207486    7.42701524562909    4.79796203025713
Cl        1.28260979631510    8.87403994440678    3.93986257198672
Cl        4.44079720054903    5.83789916493255    5.31887160820467
N         1.06055693615921    5.66504126595030    6.05301294097188
N         0.64589372849627    5.54350300924533    3.92538197349187
N         4.30590409438940    9.02542761868889    5.20047380620709
C         1.44354989106915    6.07100608042445    4.84294188851221
C        -0.36346111706798    4.65992910293462    4.51046412899370
H        -0.21615722565901    3.63718473965338    4.14650466266320
H        -1.36555905236695    4.98462223349536    4.22340072604754
C        -0.11021974674450    4.79752283049957    6.01477272162189
H        -0.94579878260907    5.27740881009694    6.53559786516027
H         0.09407003861318    3.84098381346789    6.50160592704484
C         1.77657444363768    5.95001309328617    7.25293320595548
C         1.63454741985899    7.20215173457132    7.86307216142817
C         2.37808934808017    7.47130840685087    9.00516242149256
H         2.27785028380152    8.43859753439257    9.47898253368939
C         3.23613407002797    6.52993051434921    9.55304576996146
C         2.61579072922678    4.97504832739468    7.80122699319539
C         3.33095297190271    5.28549268268633    8.94770733078505
H         3.99318184958873    4.54225353314874    9.36765321105240
C         0.66956786751492    8.21880445934849    7.32940422371838
H        -0.32635306885045    7.78792383061660    7.23177579784763
H         0.61137052257461    9.07599350030441    7.99576699197402
H         0.97212163462311    8.56854487156906    6.33549092517411
C         2.76192559530968    3.62100733411919    7.17605530483567
H         3.73462073503517    3.20345602665935    7.42100938008630
H         1.99559201570684    2.93944583975965    7.55011211292274
H         2.68592988690881    3.68489289327816    6.09363138413631
C         4.05667785619428    6.84526336113148   10.76648624344277
H         3.69835733848796    7.74640464500134   11.25798104785556
H         4.02644780666979    6.02069231173016   11.47593647303929
H         5.09707732259770    7.00030680634941   10.48039814018669
C         0.79034859699485    5.60640993970935    2.51134922471770
C        -0.11427567068464    6.34776192460983    1.75015171967493
C         0.01325303113355    6.32740104143564    0.36792350618846
H        -0.67703615566788    6.90759448552215   -0.22752936319446
C         0.99840757476304    5.58490739594994   -0.26329989427773
C         1.88040110901923    4.84980766697006    0.51837573460795
H         2.65294177170553    4.26532847982694    0.03835169653771
C         1.79410442795191    4.84688727022670    1.90225525110726
C        -1.20135827707800    7.15136100365341    2.39200381494404
H        -1.59841543489821    7.87665740510319    1.68708878800876
H        -2.02271244247432    6.51043801574639    2.71508534405914
H        -0.81094308219656    7.68820915840997    3.25426428026813
C         2.74538351320730    4.02955179205295    2.72035343980325
H         3.46645250282618    3.52724420199396    2.08126687598990
H         3.29086849706034    4.65899068049914    3.42626073442258
H         2.21104977295676    3.27259946460139    3.29547329408570
C         1.10672117700309    5.55745528782991   -1.75792837083836
H         0.60205380182621    6.41297131416037   -2.19968020915544
H         2.14896629668515    5.56172444320686   -2.07050481060214
H         0.64428093714122    4.65038965311432   -2.14855221113803
C         4.94543318474103    8.75263158138443    6.49037411105290
H         5.46039463107762    7.79273140652995    6.46338634327018
H         5.67431991720413    9.53832769006212    6.73635582520344
H         4.18426303059664    8.71290640045180    7.27480837659146
C         3.70387486528154   10.35678164795392    5.27898734471464
H         3.20057148779571   10.60423503805505    4.34590218830692
H         2.96329973650031   10.37619256364821    6.08012081829110
H         4.47220060394482   11.11618267089557    5.48571803826982
C         5.31611855080133    8.99563476808889    4.12422283809411
H         5.86220395852079    8.04917664963631    4.20530379206834
H         6.02621791749269    9.82865300352153    4.25377231641745
C         4.64211212504763    9.07758431612560    2.77847045754512
C         4.09222739435159    7.92993086557005    2.20589723247248
H         4.25668721295433    6.95094840851924    2.66286376033455
C         3.40177524663627    8.01701703759660    1.00717556563461
H         2.97759672779846    7.12756087545221    0.56895772583141
C         3.25176419949890    9.23910951394056    0.37394283608481
H         2.69850212776913    9.30235430700346   -0.55141347451702
C         3.81753967341944   10.37527305566913    0.92385433514798
H         3.71383076117574   11.32973689542905    0.42849257223406
C         4.50958531182049   10.29336130624686    2.11964972256627
H         4.94869515633976   11.18506380788082    2.54646392539850

