49
CSD_code = ZOMWIJ | q = 0 | S = 0 | Stoichiometry = C16H18N8O6Zn | MND = 6
Zn        3.43051237168545    6.97305582977346    4.51307066186278
O         3.37095457068039    5.20811638187681    5.86043286398291
H         2.60479218301976    4.89257646752447    6.40409172649133
H         3.89229515821832    4.42533044994356    5.67186110648983
N         4.01854682709105    5.86797438321190    2.89884587957967
N         5.40719426349543    6.13857436750670    1.21145481545950
H         6.05155903711689    6.64467828067047    0.59413389005823
N         5.43344647036137    7.22695314282637    4.72535198374389
N         7.05936683222558    7.86314651416679    3.37456465564789
C         5.15396868129150    6.43781098742932    2.50237893955898
C         3.53366636433402    5.19000587470957    1.83140385035686
H         2.62925008522561    4.62107096857589    1.89432273065560
C         4.37968265167135    5.35995411599852    0.77280509637854
H         4.33661124081895    5.00031483380833   -0.23402438069314
C         5.90286031700112    7.17539509731215    3.47777124289461
C         6.32051561153663    7.95690419154005    5.43681335970012
H         6.19118522264628    8.12849306557126    6.48531852269665
C         7.33095582594291    8.36435387999219    4.60997250671190
H         8.19698449608370    8.96564809167198    4.79578113697326
C         7.66041071413093    8.25146172007756    2.13906165376344
H         8.14937216699697    7.41032850979787    1.64234620526301
H         8.38414336197095    9.04660030618379    2.31526491522349
C         6.45799594395146    8.78631033807365    1.19717830307663
O         6.47432310522796    8.32996024644314    0.05732938129914
O         5.62840289075030    9.49193624173750    1.77461232253640
O         3.48875023289822    8.73758819331537    3.16540112599692
H         4.25429061581328    9.05386729501306    2.62117017492269
H         2.96505897574075    9.51933169430445    3.35166429305478
N         2.84248778446300    8.07752990585648    6.12756049584857
N         1.45241091922742    7.80781012293997    7.81393380147153
H         0.80733591118069    7.30192848678985    8.43067746417225
N         1.42755799758877    6.72016679297419    4.29976309131509
N        -0.20003588755421    6.08554816027975    5.64928331881311
C         1.70624562259276    7.50869021960258    6.52307804267990
C         3.32728569460380    8.75474791925595    7.19551542169135
H         4.23229681450115    9.32281700399763    7.13341095700764
C         2.48040623107324    8.58530087447261    8.25349387874678
H         2.52312515066909    8.94467998206235    9.26043144998500
C         0.95729132628173    6.77207619314268    5.54700209002775
C         0.54028495374584    5.99117597356811    3.58757501507082
H         0.67030433022513    5.81944122710197    2.53917163896084
C        -0.47116823301712    5.58466158443535    4.41363626507695
H        -1.33770033135744    4.98430780309171    4.22714651449072
C        -0.80204716175044    5.69740642313234    6.88433889460328
H        -1.29050065123322    6.53882815530669    7.38109083024725
H        -1.52648910673594    4.90302431819774    6.70749294274946
C         0.39964193241209    5.16132461368066    7.82649006215122
O         0.38281412846889    5.61673486647311    8.96672541112837
O         1.22905635668529    4.45555790458348    7.24910345007326

