119
CSD_code = ZOMYEH | q = 0 | S = 0 | Stoichiometry = C50H53CoN4O11 | MND = 6
Co        4.02631430591136    6.62324127345711   12.03774547778604
N         2.91479468151731    5.72434206134000   10.77374775191743
N         4.11422661105414    3.15194351508245   11.21395341127282
H         4.32353240927456    3.53157873059951   12.12868986820602
N         3.67585367373315   10.07375497717237   12.87605332059001
H         4.14001074892238    9.76166991232629   12.03176037167911
N         2.56517713800484    7.43829127467229   12.97915586378853
O         4.04654152274367    5.13125976034931   13.20236966675484
O         5.19560453140004   10.22801594436204    9.68833004882517
O         5.18438184434541    7.40925620259022   13.31523032214055
O         6.88603700607693    5.44651350689753    8.95132580400477
O         3.78790841149360   10.41045964745560   15.09361676997059
O         6.02505208680435   10.58339724345563   16.30565235024200
H         5.04167868289194   10.54392289011716   16.16016730305440
O         4.83247294460286    2.58415432068461    9.16576459961595
O         5.44716908231090    5.90208964279118   11.05347318828803
O         4.23959481557383    8.12908914944233   10.90758468372116
O         4.67758700716037    3.02258348565634   14.57025924664466
O         7.29096414228032    2.11911159790011    8.70308155215667
H         6.30798746041386    2.20550235604776    8.56340280014562
C         4.27418049993853    8.06568823560640    9.61892585750215
C         4.81532446533196    9.17487711347714    8.89414600508557
C         3.89453651123510    6.96944204815632    7.46726222840350
H         3.53116770185003    6.11359681711415    6.91832588863152
C         4.47775176539611    8.01581614237724    6.81043861363317
H         4.58876222837303    8.00215626624045    5.73737513803714
C         4.92597296082100    9.13268766834079    7.52675723777311
H         5.36348723023941    9.95650469657422    6.98455068924915
C         3.76653593173742    6.97585043638248    8.87017965527082
C         3.09121476099252    5.89984377581223    9.50741508625811
H         2.64869708960148    5.18262478377935    8.81714157985432
C         0.67373502868819    4.64094991252703   10.62600906499321
H         0.68069092750501    4.52215475267564    9.54127128465668
H         0.23434358218745    5.61458147745218   10.85283021634096
C        -0.15865955621709    3.52367482625405   11.24871540117954
H        -0.20952020104789    3.66928284207941   12.33007711705291
H        -1.17707303514097    3.56080261244103   10.85713233106151
C         0.46477802588021    2.16381126966490   10.94662749175302
H        -0.11782760263756    1.37478060347827   11.42522139073197
H         0.44323097666159    1.98724281086001    9.86914552805061
C         1.90900169938824    2.10877663016204   11.43540688894557
H         2.35642845157455    1.14805351792442   11.17614485329690
H         1.94266065520846    2.21577528169588   12.52193895308585
C         2.73629514064289    3.23090861076081   10.79843297247234
H         2.73393079149307    3.10457047754415    9.70910884819280
C         2.10222271016661    4.58431041052223   11.18197299293634
H         2.03421917689886    4.62230680225094   12.27204061175970
C         5.09778254022037    2.89651741681785   10.33610327126821
C         6.49305205560596    2.92601050872823   10.83189962731247
C         6.84032295749328    3.35514728180213   12.11369160730408
H         6.08025810023159    3.67432735241469   12.80681872099033
C         8.15708433807631    3.39586615511572   12.52350719869306
H         8.39975014130185    3.74005456944679   13.51745653290628
C         9.16744144023455    3.00683141779905   11.65603753648312
H        10.19935726618778    3.04263658095083   11.97294728758141
C         8.85442920250650    2.57820002557842   10.38600177147727
H         9.62138127854748    2.26903444421403    9.69188417855809
C         7.52608454120646    2.53492071518366    9.95421906306668
C         3.65501354800094    5.12907764920192   14.43125521321799
C         3.99542995807016    4.00005451065976   15.24573493774515
C         3.64631218875146    3.96101098055869   16.57198728504110
H         3.92427228970601    3.12122670515597   17.18947028857583
C         2.92455068807474    5.01507300219957   17.14845917399501
H         2.67219683081919    4.96611392004709   18.19602238515395
C         2.53630548807654    6.07946076366598   16.38596030066144
H         1.96518085318779    6.88526324680287   16.82223974762922
C         2.87400527533921    6.15419016549347   15.01832575032827
C         2.36523542627549    7.22643795420242   14.23689900984519
H         1.69605467153987    7.89370557051343   14.77923886386270
C         1.82249734894671    8.53030887298697   12.36000190751719
H         2.06266615343062    8.50387643190474   11.29420512529206
C         2.24288441683069    9.91246097107210   12.89842615928112
H         1.93664383887495   10.02006545519303   13.94573448710695
C         1.56053590114514   10.99418776174687   12.05584728000131
H         1.85902198354642   11.97603232735836   12.42666289250142
H         1.90069908414114   10.90497232879327   11.02170723792303
C         0.04327851216388   10.84692157324974   12.12332595907212
H        -0.42929602620343   11.60656965475683   11.49832380281291
H        -0.28815573215640   11.00774612209554   13.15140893453640
C        -0.38859411722885    9.45675749833635   11.66454093491218
H        -0.12784491043046    9.32247321038744   10.61240092774877
H        -1.47159591550492    9.35533496794142   11.75726549707368
C         0.30267228697909    8.38206347403976   12.49888900071821
H         0.00278504866273    7.38719494223386   12.16337584702968
H         0.00020721967449    8.48859505843481   13.54193881296310
C         4.37210683276430   10.26185430012728   14.01047359180730
C         5.84687596304685   10.34195729457050   13.91163610689138
C         6.53418829042450   10.25472556762220   12.69907941751309
H         5.99334398568391   10.13878054758061   11.77514087514643
C         8.64158913421513   10.44792337828472   13.82423136986739
H         9.72056565305467   10.48750807568497   13.78966403850323
C         7.91141156404386   10.30944893375050   12.65117073218153
H         8.41973368932904   10.23391767717818   11.70200988457751
C         7.99097923618936   10.53649855202024   15.03393191527868
H         8.53418045945269   10.64718506085625   15.95966727856698
C         6.59473468420255   10.48957801900140   15.09977831407768
C         5.78420291822874   11.34672114122724    9.07503169562849
H         6.70864050197659   11.07913751120344    8.55316313335432
H         6.01519909991061   12.03960938578833    9.88319461045232
H         5.09596143821352   11.82662296124911    8.37116543429827
C         9.46129135208406    6.62734257148949   11.33080183053511
H        10.53172438318464    6.75383412755416   11.38105802822182
C         8.66882175653240    6.98633451839294   12.37630511373787
H         9.08511426025738    7.42655024653020   13.26976781156637
C         7.26351228082514    6.82601833486753   12.29945750802474
C         6.67739478905025    6.21399686993733   11.15365684040119
C         7.54720594969800    5.91100320417721   10.04335396751347
C         8.89696879446127    6.10816057176745   10.14943890870893
H         9.55225489541752    5.86935608751293    9.32649262077592
C         6.42797930380437    7.31353132583437   13.32422826203762
H         6.93383405263226    7.68761897645665   14.22624760611359
C         7.62139596002242    5.19224868826927    7.78037283787292
H         8.12334963334030    6.09757982692217    7.42132425303293
H         6.88985676101976    4.86580568640923    7.04355683412682
H         8.35916284715667    4.39903635443924    7.93056818461203
C         5.11670222263262    1.89562987383073   15.28364753053023
H         5.79611880281592    2.17325254393672   16.09585540405507
H         5.65163164178801    1.28187066929391   14.56036328777181
H         4.27518366696035    1.32679121457603   15.69339188707609

