81
CSD_code = ZOMZEG | q = 0 | S = 0 | Stoichiometry = C35H43OOsP | MND = 9
Os        1.03808235372031    3.93954082070130   -0.13748935842167
P        -0.09654779149217    5.40539831427522   -1.43568028536299
O        -0.75656256453417    4.08922478695529    0.82100994869488
C         0.56489641118429    2.39722831390772   -1.40207863174442
C         1.18481005564063    2.11818190739412   -2.62030764883522
C         0.89328795125376    0.97011696703476   -3.33933010474733
C        -0.03249132785196    0.06155042848288   -2.85707622918746
C        -0.65610492943275    0.31229514158834   -1.64702416591180
C        -0.35650485428837    1.45997293663363   -0.93187067442893
C        -1.98802839010187    4.43723276395681    0.30467228636533
C        -2.96864482622674    3.26982141876336    0.47297024529185
C        -3.97134352189128    2.96749614749008   -0.43735406716209
C        -4.82998834684790    1.90576734244141   -0.20697457640920
C        -4.70299002793986    1.13546743075299    0.93480134167811
C        -3.71188841508745    1.43665757378214    1.85332551296617
C        -2.85799567617209    2.49818754585958    1.62381938475052
C        -2.60965109926848    5.57091208642269    1.12798566172996
C        -3.84257643055979    6.11834050057513    0.79060913188841
C        -4.39484916465521    7.12836103761771    1.55690099098951
C        -3.73021962831377    7.60000475873581    2.67713750126092
C        -2.51619151954791    7.04202692943452    3.03527860616870
C        -1.96646420202270    6.03031223677192    2.26839943857414
C        -1.84810421009779    4.85630261410729   -1.18112270455076
C        -0.04906322277377    7.26624044906796   -1.11772246361763
C         0.62214487181820    7.52023991142139    0.22753821493900
C        -1.40058281579362    7.97133243929293   -1.16564512708372
C         0.04106801276775    5.29405753892049   -3.29755579810730
C         1.46510701113254    5.63899436935436   -3.71845826282042
C        -0.97373784109330    6.10268195613812   -4.09637685960928
C         2.28409353278374    2.82551465968855    2.24204641161775
C         2.66710333034859    2.23636414786652    1.05730324872082
C         2.71169825978131    0.74583954076084    0.89591712603933
C         3.04110165555200    3.06298227936726   -0.04465360181585
C         3.16621454789810    4.48191512399748    0.13952007478167
C         4.00247711414793    5.29756842166164   -0.81961849647895
C         2.93073097851538    5.00617062626255    1.44591250630770
C         2.42257063487682    4.22296211531727    2.45444932830095
C         2.09518128027374    4.78706692510687    3.80366480397890
H         1.91748958710999    2.80662869387313   -3.02291945732412
H         1.39381574763397    0.78358934246962   -4.28021208255173
H        -0.26283198804451   -0.83363514892817   -3.41698970039226
H        -1.38039807902730   -0.38843411154131   -1.25406637521854
H        -0.86053450791590    1.62698871814856    0.01094509195281
H        -4.09342115059016    3.55040099341716   -1.33790235860486
H        -5.60280205331681    1.67856643745600   -0.92770701160850
H        -5.37324741176019    0.30606651874937    1.10875865383071
H        -3.60626526054001    0.84334345642197    2.75054736225521
H        -2.07691695855305    2.73774584166765    2.32990128727763
H        -4.38186957058416    5.74863316720089   -0.06937619225118
H        -5.35132282911565    7.54850296674799    1.28037354218157
H        -4.16324363222965    8.39071527938720    3.27234746650058
H        -1.99731788936567    7.39285486256627    3.91629093767153
H        -1.02653359192450    5.57603938044970    2.54587287672213
H        -1.91883127570920    3.95768588499471   -1.80319271487634
H        -2.59131817048921    5.58848238021994   -1.49013959167125
H         0.59338133950211    7.67267251746608   -1.90810546995241
H         1.62913321585425    7.11155582612904    0.22803730831778
H         0.67952352209740    8.58867204275633    0.43333607331357
H         0.05066497432524    7.04622708061463    1.02250491321596
H        -1.92974895997071    7.77905110878618   -2.09434884081022
H        -2.02413101944150    7.65640271585806   -0.33310341145233
H        -1.24700866167569    9.04719934346981   -1.08257745554545
H        -0.12479203542232    4.22703707588716   -3.48847215510168
H         2.16670608799300    5.12647410190810   -3.06450959030017
H         1.64623440439992    5.33106157331263   -4.74633661039265
H         1.64662155263165    6.70951074100136   -3.65101036230041
H        -1.99145076128598    5.86965027451258   -3.79537123667155
H        -0.80280618107228    7.17007895403569   -3.98060974600762
H        -0.87362352282150    5.86286568464359   -5.15417265701060
H         1.95738115841251    2.21010490276288    3.06991174222921
H         3.73186697377523    0.42580914646360    0.68107717193399
H         2.37183273703351    0.24428712714186    1.79911260447084
H         2.08068044173459    0.43394733773292    0.06358371843307
H         3.52915277405843    2.58690985405966   -0.89281701918809
H         3.57589293490280    6.28607966976503   -0.98404253231287
H         5.00640265567752    5.42950247654905   -0.41073792831141
H         4.09314542511329    4.79527014090054   -1.78013048455937
H         3.16431150976681    6.04601634963005    1.63933681504904
H         2.72556976777141    4.33450697359152    4.57027580942255
H         2.24177710529906    5.86513191460258    3.82384096874657
H         1.05749440006879    4.57196989521469    4.05987393217417

