86
CSD_code = ZONHOB | q = 0 | S = 0 | Stoichiometry = C42H38BClOP2Ru | MND = 9
Ru       14.28471423700320    5.85758361759831   12.69804354184527
Cl       16.59149112896975    6.19464887859163   13.12725717664258
P        13.55599192946004    6.36335560472020   14.80951114547171
P        14.15306627626728    7.97059664873929   11.85305179881252
C        13.22442605890941    3.73413156425734   12.81963527272466
H        12.57652375821872    3.33806712777203   13.60309393647481
C        14.76712359189275    4.73936059007535   10.61243165551266
H        15.26023150115055    5.13020555074601    9.72359897152075
C        14.56394553013796    3.38774137704142   12.79580296407006
H        14.91729603526216    2.74326256098375   13.59620059738112
C        10.12068906651901    8.57969551695156   11.60827829556642
H         9.22833829631543    7.99093653297021   11.76252267260801
C        11.40728389787346    8.15078648628801   15.25396304787870
H        12.14854083039462    8.87557949249928   15.55692846059678
C         9.10876091774517    7.58330472852350   14.85418141227246
H         8.06661519543567    7.86569964992270   14.82722929790359
C        12.52040226406864    8.75188524922837   11.60258230630796
C        13.68333301242791    4.89044323650456   15.88420438460721
C        14.88230339450947    8.04974958745959   10.17965721559376
C        10.07179450887648    8.50977379699621   15.21486900345991
H         9.78177479190599    9.51904737291777   15.46868593267971
C        11.80009928165522    6.85664495117637   14.92818103689858
C        14.95098052573662    4.31191676545607   15.91948994322707
H        15.74184266662964    4.73737089634383   15.31182209659931
C        12.64049222499043    4.58295965650139   11.83536521385604
H        11.56007044001941    4.69582965681061   11.80953874804336
C        14.99151316858018    9.34420845006204   12.72262980658865
C        11.36680993066434    8.00549504395835   11.78979103170095
H        11.46044668283810    6.97222659151986   12.09289191483703
C        10.82310470398889    5.93538221925977   14.55508947557760
H        11.11786663440233    4.93029487439576   14.28824824555598
C        14.17122020189546    2.68392205576425   17.49429330076931
H        14.35480476385555    1.82003137588284   18.11634249654731
C        16.22540962235011    8.85889960616909   16.66491364860047
H        17.18882213428840    9.29229178108501   16.44196915707687
C        15.60008377672624    8.06450187382871   15.71809730227291
H        16.07844619052364    7.86502460984328   14.77023595557895
C        14.17376240391860    8.47205860920467    9.05977219453673
H        13.14839872372656    8.79992798302965    9.15478926590054
C        12.66821797764073    4.37228879924240   16.67791368956489
H        11.68621418614189    4.82465531025484   16.67774795596637
C        14.39555011779448    8.51340010672677   18.17602668087403
H        13.93032662621355    8.67982350196633   19.13717256757901
C        16.30515928875640    9.72625817524263   12.48062221557401
H        16.88208593468916    9.23846257130226   11.71132984852322
C        12.91570744528168    3.26712163693333   17.47495362631933
H        12.12190461596869    2.86173763131541   18.08623710931523
C         9.48815728213832    6.29109532519787   14.52836595059774
H         8.74142121402663    5.56125708710919   14.24877126675405
C        15.62210467966212    9.09324036452056   17.88730536813679
H        16.10888884442845    9.71619375963229   18.62371437581946
C        15.19270696740253    3.21285725244310   16.72058921031550
H        16.17585320293073    2.76605049376795   16.74081861753032
C        14.27050951504392    9.98704562178813   13.72723663554797
H        13.24840598453938    9.68593678237445   13.91042633198514
C        16.87976430071479   10.73916485341942   13.22954642554756
H        17.90184115833539   11.02986584287984   13.03528303639354
C        16.78938795976596    7.59388244662009    8.77846512308084
H        17.80408801343734    7.23854576184959    8.66904512629469
C        13.40932114524510    5.02377740781241   10.72669565731107
H        12.89960167920955    5.59618452060247    9.94901520580604
C        13.77092051241068    7.71304136081432   17.24027438228456
H        12.82299550177769    7.24616955327460   17.47258770848970
C        14.36176987442419    7.50206704088341   15.99486996969791
C        16.18973158325275    7.58785373052684   10.02436558491628
H        16.72068811967548    7.19898882787075   10.88443137053842
O        16.66236490887270    3.13460019799890   11.42949396424390
C        14.84544669397465   11.00039326623491   14.46787145240649
H        14.27544141857529   11.49297791764756   15.24243566783761
C        10.02237564154334    9.90842912326814   11.23478391575969
H         9.05198474656871   10.36170078562449   11.09498215001138
C        12.41611969668919   10.08840858055139   11.22131098782628
H        13.31371015060735   10.67319361204372   11.07219019752325
C        16.08594644777001    8.03876610181430    7.67059533817926
H        16.55165014248536    8.03855730003053    6.69585287059343
C        17.57762440908950    3.49748111112953   10.43151674941933
H        18.41460987780441    2.79883814583767   10.48003799924774
H        17.94679159181789    4.51255330047927   10.60716824259010
H        17.12681125154112    3.45213213785360    9.43424035172882
C        16.15553659574152   11.37786424076619   14.22101579953820
H        16.60917998348981   12.16795527033891   14.80122469900169
C        14.77731759038030    8.46751539266231    7.81376488417311
H        14.21871908106835    8.79750900750021    6.94954762999633
C        11.17170733690399   10.66011109537875   11.03920776709681
H        11.09507867734541   11.69655264765179   10.74391165536539
B        15.44253972665827    3.71215282771430   11.56124671261273

