41
CSD_code = ZONJUJ | q = 1 | S = 0 | Stoichiometry = C21H14Cl2N3Pt(1+) | MND = 4
Pt        0.32604143088237    9.87469935049084    1.45758641134563
Cl        2.09131123795162    9.26725641433132    0.25488832521866
Cl       -8.08407135177592   12.77743118658892    7.22028972442194
N         0.84563656671351   11.78178450522193    1.77428383955040
N        -1.18149149265194   10.39415162028120    2.48597115364144
N        -0.64066495321138    8.12221507951439    1.44442410158221
C        -0.07824001925790   12.45146186107780    2.51878904741250
C         0.10744699928434   13.79045475236468    2.84183167885724
H        -0.63056716911778   14.30991639479443    3.43067296757769
C         1.24383138361597   14.45025145372062    2.40095821593762
H         1.39883097606982   15.48943819271146    2.64464200371092
C         2.17291952068875   13.75250238967806    1.64425978499422
H         3.06919294658248   14.22839703968393    1.28204404697111
C         1.93443280217990   12.41879747893241    1.35395142204460
H         2.63328945206966   11.83606156341706    0.76656415616080
C        -1.24385048742184   11.65782124170820    2.93335587255663
C        -2.33320512376151   12.06110041532198    3.68960276406138
H        -2.41622823323072   13.07545112468710    4.04181047323784
C        -3.35408183291806   11.14272926049699    3.97464644207954
C        -3.24222109247702    9.83401239750291    3.48283321447595
H        -4.00782592707976    9.11218232994464    3.71240436778977
C        -2.13224181013858    9.47945662726399    2.73214477812800
C        -1.81602770210885    8.17560591442374    2.13161328185618
C        -2.62985698467265    7.05340302242903    2.23158855548674
H        -3.55722004388037    7.10730176164493    2.77779667127776
C        -2.24049066947068    5.86860267051482    1.62667988077851
H        -2.86360565452009    4.99108007076557    1.69735862206388
C        -1.04074557672591    5.83306040439255    0.93251305203380
H        -0.70142269337311    4.93216350695624    0.44853253095276
C        -0.27121124590832    6.98342783877612    0.86605116532781
H         0.67216730626853    7.00059978811453    0.33429087802924
C        -4.51341471140438   11.54285274652798    4.77020489866406
C        -4.37190174515751   12.43007923010311    5.84001728445492
H        -3.39385818254099   12.80063436708714    6.10726250274442
C        -5.46207209255705   12.80403655251050    6.59762325790908
H        -5.34251251087542   13.47813250238590    7.43047667070276
C        -6.72229498255216   12.30666245930700    6.28598979914312
C        -6.88289931166642   11.42895185625775    5.21979901161379
H        -7.86398939923144   11.05290487114486    4.97818340636168
C        -5.78589654540169   11.04655104986756    4.47649945122310
H        -5.92559107722039   10.38617670705616    3.63406428761572

