41
CSD_code = ZONJOD | q = 1 | S = 0 | Stoichiometry = C21H13ClF2N3Pt(1+) | MND = 4
Pt        2.31384689463640    0.59886105153381    6.08448034412222
Cl        2.27758138721984   -1.54773567599116    5.52436026567909
F         3.52852468446279    7.08470715234432    5.63963712931731
F         2.51389865691975   10.46207034815319    8.71227900971868
N         1.90874169166275    1.36675883655462    4.27961204675100
N         2.33938752259570    2.43286971336229    6.56512390496815
N         2.73641955025127    0.37464437492159    8.02929885769599
C         1.85991503696577    2.72824149669536    4.29878371186053
C         1.61022187544797    3.44646954166951    3.13540514219310
H         1.58159463124397    4.52330971677319    3.16240067045246
C         1.40580802417371    2.76845677703508    1.94376563466294
H         1.21255447079614    3.31401798181985    1.03364913759085
C         1.45609989538137    1.38276448144222    1.94368134995627
H         1.30308126422495    0.81813943515076    1.03876300831070
C         1.71146741949440    0.72108403400634    3.13423265015465
H         1.76149639133655   -0.35987558944338    3.17849105504440
C         2.09803729560585    3.34440649880934    5.61106742511074
C         2.09982159438323    4.69261709625694    5.93660233682111
H         1.89004394349456    5.43728879282922    5.18811538051840
C         2.36889828186706    5.07743911123503    7.25594058699835
C         2.61613146284517    4.08987104176067    8.21821706526362
H         2.84316207801357    4.37666757097896    9.23134566983614
C         2.59309647191746    2.75481451734365    7.84286402506335
C         2.82636447144992    1.56900213764431    8.67887082934027
C         3.12196363615488    1.61741119299099   10.03614689892757
H         3.19198762339336    2.56788429183429   10.53909932245928
C         3.32835482763720    0.43813833286068   10.73465884345849
H         3.56009142704421    0.46272420555805   11.78775071863815
C         3.23244090932556   -0.76777171576704   10.05695098453097
H         3.38594811581422   -1.70667876842256   10.56282049066154
C         2.93408122042739   -0.75399556636724    8.70381670547368
H         2.84940271969046   -1.67236182404028    8.13596829892976
C         2.39948029258512    6.49369806444696    7.63539182667150
C         2.97438873923954    7.46086421820517    6.80621460514374
C         3.03097371796351    8.79551874636545    7.15205588876453
H         3.49376665823876    9.51596805568802    6.49742381816375
C         2.47801241361136    9.17697837595091    8.36324293803740
C         1.89019434055030    8.25585727182383    9.21731889950231
H         1.46422841840336    8.58891402356914   10.14963456985145
C         1.86349130800066    6.92605932809016    8.85078192741450
H         1.38829863552980    6.20860132432780    9.50143602594108

