44
CSD_code = ZONPIB | q = 0 | S = 0 | Stoichiometry = C12H27CrNO3 | MND = 4
Cr        7.50953770959348    4.15626322884729    9.32033970669390
N         6.20345382615096    4.15626541072154    8.36860510800904
O         6.92697164537482    4.15626590780001   10.93464621013334
O         8.38085053655213    5.58541836813663    8.93580674229854
C         5.79991855345770    4.15625629409610   11.75031478369258
C         6.24965328512589    4.15632449286647   13.22142657477581
C         4.97678612387304    5.41409369698217   11.43615948367045
C         8.40600229659403    6.73325009269219    8.14918555268579
C         8.42468168336541    6.30744496948883    6.67383321798950
C         7.13753690739496    7.54732460216661    8.44403753940795
C         9.66454174197702    7.54721709121800    8.49496193078629
H         5.38575007346944    4.15632105366152   13.88046186222793
H         6.85154474015055    3.27292971796555   13.42569199852798
H         4.73886264937409    5.41197536933711   10.37346883659280
H         5.56304691417423    6.30394746195995   11.66114041944891
H         4.06016058985117    5.43167424532701   12.01919295830804
H         7.56384123427879    5.66531627934818    6.49271668465432
H         9.33237703267158    5.74357565385463    6.46350016646728
H         8.38139965715931    7.17477262440130    6.02091113601226
H         6.27205416232335    6.91610479742000    8.24779568265697
H         7.09479802342687    8.43615992343886    7.82056785900991
H         7.12476986067720    7.84237374538628    9.49248739652502
H         9.71248404984032    8.44538605733910    7.88540959428423
H        10.55512366490907    6.94845424210494    8.31432144966232
H         9.64571325006624    7.83200701657878    9.54512583085458
H         6.85148780583745    5.03977292483076   13.42562790223203
C         4.97687830668343    2.89833550893475   11.43624956617984
H         4.73894759239123    2.90036348107323   10.37356021054332
H         5.56320773496436    2.00854171853816   11.66128915408682
H         4.06025722104154    2.88072535627535   12.01928929917476
O         8.38084326984233    2.72710369036972    8.93580547163803
C         8.40599415294854    1.57927798019338    8.14917498022110
C         8.42475145615468    2.00509798811553    6.67382746229828
H         7.56393574295546    2.64725044307324    6.49267802714331
H         9.33247132787352    2.56894562748603    6.46354105759435
H         8.38147401509475    1.13777935563798    6.02089305370445
C         7.13749148551575    0.76524026061873    8.44396342260691
H         6.27203720409335    1.39648671407850    8.24768763135181
H         7.09475177102046   -0.12358953069896    7.82048769514956
H         7.12466560435425    0.47018547945853    9.49240990654018
C         9.66449470002552    0.76527119410024    8.49499979134954
H         9.71243352319682   -0.13289811276426    7.88544762561618
H        10.55510269190893    1.36400689950691    8.31439630310551
H         9.64561418226611    0.48048067803310    9.54516271408844

