46
CSD_code = ZONPEZ | q = 0 | S = 0 | Stoichiometry = C16H23BrNiO3S2 | MND = 4
Ni        7.78493125005980    6.24520734617320   13.50327253950130
Br        9.51779655387548    5.01313973625069   14.20354795700960
S         6.65972794903853    4.51971063306076   12.77134366332951
S         8.91305667742753    8.11584362175625   13.60687582033247
C         7.60029220976388    9.37871675646818   13.40596522677695
H         7.60533220584798   10.01936898585022   14.28786446333780
H         7.88288369601135    9.97931670846698   12.53714835494451
O         5.72988736193750    3.23850654928437   16.45102548579655
O         8.62740910110206    8.30273136424823   17.59609227130013
C         6.37463237560652    3.44191210665706   14.19863452117248
H         5.56453839449086    2.76015209343971   13.93941217762073
H         7.29441661154534    2.87247555598228   14.33392014123026
C         6.24512365137771    7.30242780732268   13.09622475159480
C         5.02638575261687    6.70245306170168   12.74623413059991
C         5.48946167784789    3.76125198396524   17.73146333613927
H         5.10348852663121    2.91782678544313   18.30707450816918
H         4.73021834556545    4.55580688957453   17.69074833871650
C         3.88100310878094    7.46789829633747   12.56825666971064
H         2.95305276068919    6.97859263483806   12.30704859511256
C         5.13243188656786    9.45837560105851   12.99806078103775
H         5.18906122525281   10.53522419268699   13.07525839711981
C         6.28391848325307    8.70262047659599   13.17695048359860
C         6.73848487656376    4.32408877957520   18.41836572493138
H         6.64949778440480    4.18755063237948   19.50636093910279
H         7.62851348490261    3.77975862047753   18.07155857322363
C         6.04947247835264    4.20315613545642   15.47264523097862
H         6.91927862521283    4.80839687344534   15.77360540022019
H         5.19440610808859    4.88490712345674   15.33064572774177
C         9.33814966835304    8.33194539814500   15.35398915650354
H        10.21821649993672    7.71268880015663   15.52864709604154
H         9.60105209042902    9.37944343231562   15.50199255223061
C         8.22071757347700    7.92324719175526   16.29921592503358
H         7.27315724772051    8.42746885431739   16.04577326451539
H         8.05605200593827    6.83582505697019   16.23067311790854
C         4.98640489396905    5.22338360482840   12.51524604437624
H         4.70906756671155    4.99818131376758   11.48194835082621
H         4.29483718185910    4.70736999874000   13.18126115540233
C         3.92856054266305    8.84151392737457   12.71393148751368
H         3.03410826555809    9.43199256536496   12.58383959199451
O         6.85052854332091    5.70062757050704   18.12725558813668
C         7.78829195661849    7.85494591539343   18.62920365692505
H         6.74185377924948    8.12341143090178   18.42556876388125
H         8.13424797814772    8.38725633961190   19.51728756727318
C         7.86062904988483    6.34345603165265   18.87397776509006
H         8.85403060282882    5.97041362655114   18.58596716279057
H         7.70969139051898    6.13741158969351   19.94421754320782

