84
CSD_code = ZONTON | q = 0 | S = 0 | Stoichiometry = C31H46N4O2Pt | MND = 4
Pt        3.59120573796250    2.42952436601487    1.06084461599207
O         2.54571920222430    2.29390669289885   -0.69899996990943
O         4.62052877379781    2.42901007945346    2.83603648620881
N         1.88013381094007    2.76532473943741    2.05871045748413
N         5.30125358183736    2.08667996778780    0.06307590403084
N        -1.02233179354142    1.59982731724058   -3.69800436989125
N         7.94450644293147    1.42412340780562    6.02156568398734
C         0.32932144057594    2.27429039615658    0.23811890478698
C         1.26734621048720    2.16984353240633   -0.83194243650769
C         0.77251848528304    1.95546740963003   -2.13084074171969
C        -0.57749163923406    1.81101686196422   -2.42016451799915
C        -1.48643355772671    1.88385247967611   -1.33545054545308
C        -1.03456778314084    2.11278181714227   -0.06907029657565
C         6.71948680982759    1.60900460765417    1.99184301482847
C         5.82076650158051    1.99417613677982    3.03105014704755
C         6.27078907434490    1.91676869395332    4.36115892222772
C         7.53804348723530    1.47321636537954    4.71483663464288
C         8.40479235303160    1.07750895215343    3.66606319992313
C         7.99611266480201    1.15096524598958    2.36683633577244
C         0.69503499840495    2.59092916180059    1.56679127807699
C         6.41306219774510    1.71948595429851    0.61580664293004
C        -0.11091009336562    1.34502966447369   -4.78939052504581
C         0.38729965325400    2.63029955798340   -5.45475393704041
C        -2.42172626833207    1.66882590579730   -4.05000960841069
C        -3.12227806277762    0.31200243625084   -3.94326743193376
C         9.17699607144165    0.78780030099256    6.42472541237071
C        10.36816484393478    1.74956535227940    6.40745792794876
C         7.16068061036819    2.00851542794001    7.08511137045111
C         6.13983477395026    1.03004323724393    7.67026292771439
C         5.33497985236184    2.28353443345264   -1.37180559086269
C         5.74951470198718    3.71648020632495   -1.74251103645466
C         4.76677703439819    4.78743760547666   -1.25629285712285
C         5.11136281863540    5.34420469101820    0.12650853112036
C         4.09432562728357    6.38838747942379    0.59610479560012
C         2.86619348260270    5.76393700669228    1.26449038827014
C         3.10704976427751    5.46824553958043    2.74628892087162
C         1.90657586738900    4.81458666787434    3.43965406787943
C         1.93991791715833    3.27804063976659    3.41236001607113
H         1.52204619869236    1.91762535670325   -2.90432790648992
H        -2.54374843200872    1.75107385391522   -1.49104075037610
H        -1.74963433426950    2.17232729367001    0.74102551108094
H         5.54999946324197    2.21372671777633    5.10533393197787
H         9.40326544658206    0.73226882091170    3.87465950350883
H         8.68137804475763    0.85485469841781    1.58332757222250
H        -0.15318763764512    2.73448640757007    2.24372079208909
H         7.24968600296565    1.48606760309038   -0.05051863843781
H        -0.63386660936484    0.73367884527819   -5.53083938551074
H         0.73613099096096    0.76038127497100   -4.42364869495917
H         0.90772074214303    3.25342437665676   -4.73283672551682
H        -0.44852343744745    3.19926492439647   -5.85579912147064
H         1.06675568126515    2.39147355295996   -6.26890201827950
H        -2.49492603168771    2.03023510921533   -5.08027234984117
H        -2.92522882292294    2.40153747262087   -3.41513156799396
H        -3.05964884592133   -0.06981505003981   -2.92781652221168
H        -2.65215497936081   -0.41024392491624   -4.60665994812390
H        -4.16919092142932    0.40760706358311   -4.22015363949024
H         9.37760750128356   -0.06915307022987    5.77768040426561
H         9.04230008535813    0.40138014517719    7.43943775260005
H        10.19163579980621    2.58350499016642    7.08289483603823
H        10.52000103692549    2.14930659613356    5.40844755987250
H        11.27182861494356    1.23356518528047    6.72189125518048
H         6.65266614936684    2.90065107950397    6.71188467743405
H         7.84664803228120    2.32953619915845    7.87476138593840
H         6.64235300827393    0.15665649561246    8.07981786771990
H         5.45077954624267    0.69583424176420    6.89976512472402
H         5.57434745672382    1.50964270602689    8.46512299651896
H         4.34046371543611    2.08513372694080   -1.77324693561195
H         6.05021002333161    1.58499020278011   -1.82886031506755
H         5.81911859546190    3.75548699597830   -2.83200050155009
H         6.74500174476324    3.91944353954987   -1.33795801213551
H         4.76377752766748    5.61669639453958   -1.96916097556208
H         3.76344223872993    4.35904007720305   -1.23963029806935
H         6.10645796541934    5.79538547978036    0.08540140242969
H         5.14304609380742    4.52741919930032    0.85419727357314
H         3.77902676405788    6.98339621117833   -0.26461014097627
H         4.57102082336825    7.07044935475351    1.30449692245460
H         2.01546545763916    6.44505523628519    1.17584761300176
H         2.61040272357113    4.83779113430273    0.74081933025764
H         3.33861322876752    6.41050281780436    3.25063407897000
H         3.97198183633337    4.81176138291476    2.85357822604805
H         1.88650250997860    5.11422373282091    4.48994254522315
H         0.97935262977453    5.16303720804784    2.97625021126133
H         2.86551871489185    2.93305110088731    3.87468741662820
H         1.08740206332062    2.90029690134370    3.99448953533452

