81
CSD_code = ZONTIH | q = 0 | S = 0 | Stoichiometry = C30H44N4O2Pt | MND = 4
Pt       11.19055395128043   10.43798142354609    8.98820229031634
O        11.22310243630693    8.39097985253300    9.04862193240195
O        11.38826929721786   12.47208264801596    8.73856996677191
N         9.62207624288115   10.41148117555767    7.75552324787889
N        12.65937744483909   10.48631346509996   10.34599158113823
N        10.72079236100551    3.95734497118553    7.54195056549663
N        13.88994105452606   16.33210825525704    7.69788396536376
C         9.66875377890063    8.03045755686624    7.24037919714554
C        10.63605250732850    7.61044206143459    8.20509345357956
C        10.95345983698477    6.24113955983205    8.27048108812618
C        10.39053144631040    5.28271316642366    7.43953271374675
C         9.44607819289052    5.72688163490903    6.48108230493827
C         9.11035547822510    7.04648483369762    6.40308398858302
C        13.62080932527830   12.60091458289637    9.63746220772069
C        12.52318075961582   13.08217843809251    8.85979877209256
C        12.65504072967911   14.33480976545741    8.23701054247173
C        13.80156526815854   15.11529980258440    8.32025561464431
C        14.87896912011204   14.60928151636526    9.08671906988948
C        14.76967765532052   13.40532428706237    9.72099769590287
C         9.19640359011082    9.35994148741715    7.13204680749259
C        13.54980817218223   11.41785290636387   10.41654729782086
C        10.31367169155867    2.98057046927534    6.55897535496351
C         8.96428310553011    2.33802812311703    6.89153736327965
C        11.51176401001501    3.45267285402420    8.64029208616876
C        13.01497460319846    3.50174829892150    8.35724904685937
C        12.74253097446470   16.96032490333641    7.08505841830923
C        12.55626944682795   16.54918788458569    5.62272258053354
C        15.13332257478687   17.06053261050953    7.59896859088592
C        15.35760190134458   18.00448233493649    8.78338790252956
C         8.83610898493047   11.62031707216254    7.62741262508860
C         7.75883010848090   11.72337587492667    8.72188267555200
C         8.32133229833932   11.81026138516475   10.14744472945045
C         8.40210958514990   10.44851669155424   10.84233322898933
C         8.98482708854736   10.52681917829582   12.25785255535583
C        10.51087466884202   10.65492011738850   12.27843039933977
C        11.20537076579982    9.32597271791842   11.96187519663865
C        12.62517621459143    9.48766542119686   11.39191550499921
H        11.69191854826569    5.98194959770132    9.01131651404391
H         8.96425752099309    5.03046237063591    5.81576707159528
H         8.37683796750898    7.35880956379232    5.67117740642569
H        11.79882246259095   14.65177422778125    7.66433567908504
H        15.78907697964806   15.17318936502399    9.20232596861612
H        15.60017209570676   13.04671934560157   10.31498383944905
H         8.34916644619939    9.48779780781551    6.45052809969462
H        14.32440177616665   11.32814651083289   11.18528086282871
H        11.08116436429919    2.20173404746601    6.51696029719277
H        10.27338244543733    3.44708519257236    5.57209356745949
H         8.18529774732477    3.09397907815418    6.94298622708376
H         9.01138476850153    1.83377808862273    7.85403269506068
H         8.69827999944080    1.60873104607304    6.13052204629851
H        11.21297240800715    2.41631339931028    8.82491992526557
H        11.28240266883889    4.02420940026979    9.54251633621346
H        13.33152995636133    4.52365410941384    8.16836271725303
H        13.25670879189114    2.90305374720892    7.48190218647572
H        13.56893581240717    3.11226922878922    9.20765283008612
H        12.87996351504642   18.04445403594437    7.14073149376087
H        11.84636412790715   16.71535092515948    7.65959426945955
H        12.41998326646115   15.47411497130797    5.54629020250361
H        13.43028871336428   16.82422617876200    5.03655008716356
H        11.68580052875379   17.04602724558964    5.20182373063016
H        15.96566134009196   16.35783218940095    7.51698352507847
H        15.11143225994130   17.64461539920395    6.67395758806396
H        15.37957255584395   17.44662604565966    9.71570153073593
H        14.55343902802216   18.73422679292804    8.84397602592222
H        16.29946368893734   18.53481941304400    8.66750119882172
H         8.33756729404206   11.64244075596337    6.64776011968068
H         9.50682068292541   12.47793612809481    7.70574278486842
H         7.08633920451765   10.86479847768706    8.64305070606850
H         7.17610614086370   12.62164987422746    8.50647176410505
H         7.68300801951092   12.46645626554514   10.74497480203821
H         9.31340741632774   12.26316118262142   10.10055100702405
H         7.39542574452565   10.02493833221561   10.89800918721456
H         9.01303003661916    9.77378237703643   10.23544420748274
H         8.54505191457091   11.38487059417720   12.77237027091456
H         8.69957277853688    9.63021407592730   12.81382970549048
H        10.83591955693783   11.01596889019426   13.25724855023321
H        10.80084417093750   11.40470354905518   11.53795872188712
H        11.26407547807771    8.70904803909550   12.86124596418291
H        10.61894103572547    8.78004692674963   11.22414287178174
H        13.32514607490381    9.76391966070669   12.19261217665664
H        12.93391599543808    8.52470621879088   10.97154067564264

