96
CSD_code = ZONVIJ | q = 0 | S = 0 | Stoichiometry = C35H54N4O2Pt | MND = 4
Pt       -5.83330690881610    4.91872120567930   13.08398852748048
O        -5.90730983633599    6.92981053934703   12.77285556319764
O        -5.80440642674594    2.90907302989874   13.39204478798769
N        -5.63240717628150    5.20224223595166   15.07327453924212
N        -5.82351636209073    4.64918972148691   11.08597456927667
N        -6.30274721799286   11.56294585468955   13.57266811570559
N        -6.33926505423655   -1.70641365379163   12.61139050536052
C        -5.81494793837072    7.64323927680163   15.06488283989360
C        -5.94499925002594    7.86258007337819   13.66251949820958
C        -6.08991347238937    9.18554119175315   13.20389880897733
C        -6.12025245673070   10.28697684238498   14.04697174099831
C        -5.98816035632689   10.04238431046710   15.43757239130986
C        -5.84016347817882    8.77098052116655   15.90744606373671
C        -5.94170017004729    2.20806265994524   11.09653169670823
C        -5.95132576153320    1.98384574400854   12.50495546515683
C        -6.08263931068037    0.66174400142579   12.96779111764572
C        -6.19996289074111   -0.43418005105770   12.12417747582468
C        -6.17492197705347   -0.18683198562115   10.72890031777220
C        -6.04195310237975    1.08499293812828   10.25423372834363
C        -5.63002112432712    6.36668280325000   15.64251826416393
C        -5.81723940175047    3.48916215988931   10.51022258284836
C        -6.00858863448609   12.71423821675941   14.39747955858836
C        -4.51925799604395   12.87592560933969   14.71194764807016
C        -6.54811153171757   11.80584391239431   12.17029578111793
C        -5.27786868644881   11.88903133977356   11.31956026711041
C        -6.56707772578538   -1.96344780753041   14.01450861833215
C        -5.26632893830161   -2.11210823713263   14.80724112022046
C        -6.23644817830175   -2.87303431271093   11.76563739568249
C        -7.58591718771755   -3.29662792844130   11.17978920517535
C        -5.39827587558889    4.06702419993759   15.94648247924898
C        -6.68662353529877    3.28636352672063   16.22984689610839
C        -7.78678962752584    4.15964403433863   16.82328926134702
C        -9.12472465157739    3.42849901409343   16.93422984880536
C        -9.62746242392424    2.83287962833675   15.61665914990141
C        -9.66180785805745    3.82815186033663   14.45834310488128
C       -10.35433495797068    3.22065076012939   13.24088731572814
C       -10.49234942953616    4.19846483114405   12.07467544682596
C        -9.18595179627356    4.43883341380018   11.32255015269952
C        -9.40755901453710    5.37016499808120   10.13288798512156
C        -8.14016735756668    5.61024471592747    9.31266570215090
C        -7.10759795112123    6.48196801074910   10.04025986959616
C        -5.74120944889347    5.80484674705403   10.21686802793004
H        -6.16402180361970    9.28619779818520   12.13372153641573
H        -6.01633356231690   10.85308501866739   16.14545903362350
H        -5.74372038972392    8.61310422552208   16.97366766079271
H        -6.06331517349990    0.54938650184002   14.03942462179174
H        -6.27292705133407   -0.99423667884902   10.02312087371096
H        -6.03060006407398    1.24683111884233    9.18410404653707
H        -5.45655117253921    6.39323785420319   16.72273261379634
H        -5.70490568268658    3.46765951127392    9.42139728648609
H        -6.57586113594463   12.65220944383233   15.33224030395868
H        -6.36062590722296   13.60212506520290   13.86708637513822
H        -3.94791187792621   13.02710102066846   13.80025553406563
H        -4.13744368381814   11.98814589519922   15.20876594690320
H        -4.36945798349086   13.73436113886182   15.36228964792126
H        -7.10144559220589   12.74649209085677   12.08298318925716
H        -7.19648624716503   11.01316278918780   11.79005891280720
H        -4.66747936593958   11.00178918389547   11.46454140647456
H        -4.68964356620843   12.76187915463559   11.59108607838470
H        -5.54084235271814   11.96661342301181   10.26743462911315
H        -7.14907295737845   -2.88613295094981   14.09943605832201
H        -7.17123299949690   -1.15672717981183   14.43554714882478
H        -4.67231714188628   -1.20539482602296   14.73448751441727
H        -4.67580247356252   -2.93821115478460   14.41744671782435
H        -5.48605462779948   -2.30663339570801   15.85389934513674
H        -5.52181947802803   -2.68230611894960   10.96157838558777
H        -5.83374000420905   -3.69325055489040   12.36747946408808
H        -8.00919394287971   -2.49549903431631   10.57993005208614
H        -8.28818616387877   -3.53081002151012   11.97649406279665
H        -7.46326947542868   -4.17774240704575   10.55500643153286
H        -4.96223409034678    4.41199202354953   16.89424364979972
H        -4.69040056672593    3.39422807961906   15.45652155589143
H        -6.45046398449838    2.46619089522522   16.91148869465102
H        -7.01983378251339    2.86490019972324   15.28479494363973
H        -7.91948312869128    5.04436913268583   16.19890447911297
H        -7.48943749619474    4.50117507473158   17.81935163231780
H        -9.03663669159822    2.62195358085874   17.66720608870163
H        -9.86990634026844    4.13394073150130   17.31104187072633
H       -10.63899628477203    2.45107830043995   15.78434397196954
H        -9.00761255473859    1.97981496464423   15.33516677803189
H       -10.19982777911688    4.72732268350352   14.76890004058380
H        -8.64402755978552    4.11961237051774   14.18395769385798
H       -11.35270611275983    2.88546375436694   13.53725800077623
H        -9.79618307309068    2.34170309951338   12.90946161957524
H       -11.22768099382698    3.80075638375379   11.36892136162911
H       -10.87921212539796    5.15035864270011   12.44685352345187
H        -8.79852970952657    3.48178380108816   10.96399387746718
H        -8.43502507212863    4.86506305167094   11.99868927114908
H        -9.79617947761510    6.32833395084375   10.48597168267460
H       -10.16784704766850    4.92865796359909    9.48187317431682
H        -7.70673291194534    4.63896430428568    9.06792773255516
H        -8.41937868495609    6.08504242779097    8.36919246130882
H        -7.47136001287513    6.74852622089520   11.03179982798742
H        -6.94377459891279    7.40964416263118    9.48906412806727
H        -5.35117024401359    5.51110290651871    9.23255995330256
H        -5.05758531920699    6.52867842998136   10.66561367410334

