78
CSD_code = ZONVOQ | q = 0 | S = 0 | Stoichiometry = C27H34BF5HgN6S4 | MND = 4
Hg        4.09432285921362    9.09771239366581    2.86519248086028
S         6.61659625738304    9.97553762571987    2.68632112035294
S         4.62899584318611    6.73088083053350    1.73264788967738
S         4.29299455630707    8.27430668648569    5.41843200697680
S         2.59235129798567   10.28730330818867    1.18942584092509
F         1.47760973605348    7.78371877269073    2.40723367500696
F         0.62323121524646    5.57284059115839    1.11918512551701
F         0.65905078447010    5.47379884066520   -1.62457373750863
F         1.54853814661684    7.63929804415937   -3.03144773785249
F         2.41247735205013    9.84427652673872   -1.74859992305578
N         7.23456699580233    8.28759126041262    4.71604036165083
N         7.22136954077727   10.40535905401025    5.31145352433245
N         7.20963376570790    7.00992145338711    2.50642206919155
N         6.93222969290787    7.15602166217844    0.32882801596190
N         5.78296059995248    6.20852123573682    4.47073975862532
N         3.85729643975980    5.58153646294716    5.33105275772509
B         7.09242196565660    6.90834365805555    4.03896715464947
H         7.99576729196183    6.23041739083795    4.42316537048220
C         7.01747400920090    9.54258673053834    4.28815464713893
C         7.57149067938253    8.36307513215751    6.03862984096924
H         7.78246178712625    7.48404659092405    6.61034581855336
C         7.56309389929792    9.66151733300986    6.40960677974028
H         7.77071947799179   10.08751358765716    7.36598710344159
C         7.03294859802564   11.86346830050967    5.28731321159755
C         7.31232510185998   12.44314784611164    6.67498531953149
H         6.61569329773274   12.05170022867000    7.41251132552729
H         7.18324932265894   13.52135838773808    6.63111606349350
H         8.33343709763725   12.24271981882430    6.99174519238498
C         8.01351538539184   12.47833599123111    4.28614565701727
H         9.03885905107887   12.25739219593844    4.57629616431700
H         7.88142295064531   13.55615787192992    4.26247713670697
H         7.84168055954432   12.08754040910444    3.28791547376552
C         5.58003531758429   12.17079212265321    4.91207099478026
H         5.38155648436209   11.93303641634031    3.86889217962011
H         5.37735816258137   13.22789091910078    5.05806510442163
H         4.89985106728700   11.59450260860248    5.53870652201769
C         6.30126186448762    6.99475724217739    1.51608964894801
C         8.43400770614114    7.20375937698302    1.93117658707912
H         9.32271742053108    7.26657549911705    2.52291879018239
C         8.26866222620130    7.29603939829671    0.59430739818768
H         9.00309293989782    7.45124669116205   -0.16445783019895
C         6.31152199288184    7.28764978015032   -0.99851952895518
C         7.39312001930753    7.44358492163368   -2.06833688427721
H         7.96185068850526    8.35935572474276   -1.92707533404210
H         6.90812852841074    7.50001105110961   -3.03919496267828
H         8.06721637577997    6.58978296477758   -2.07911818407470
C         5.49398307097228    6.03229155730635   -1.31155228282790
H         6.13728634573994    5.15466110746853   -1.32003134173773
H         5.03169556569966    6.13509178771437   -2.28912727849730
H         4.71123881799200    5.88097523007939   -0.57496377170180
C         5.43824573322622    8.54283364520876   -0.99261781540308
H         4.62899685985473    8.44340683790856   -0.27394663002531
H         5.00443637762918    8.70482969283896   -1.97472804188449
H         6.02868265063763    9.41637914510137   -0.72226715197775
C         4.65184752436908    6.64204250196831    5.05237251799412
C         5.68080611906705    4.85115649822338    4.34982937082689
H         6.45701698964344    4.27375718709152    3.89370680560420
C         4.49965503276784    4.46164018263925    4.87602099237123
H         4.08717181496935    3.47965691014310    4.94478360016413
C         2.55748686857429    5.59634026041911    6.02021905810412
C         2.74808282222791    6.19861128802769    7.41484471100264
H         3.47705828546135    5.62123085073040    7.98065015661504
H         1.80251892480983    6.18538930161316    7.94905475615631
H         3.09225051539342    7.22618791075951    7.34873605403822
C         2.03173068762640    4.16766920490911    6.16851224240895
H         1.85951996831177    3.70807009737532    5.19835998711720
H         1.07987615043712    4.20510901351452    6.69166575587469
H         2.71061594647037    3.55030150789114    6.75295835896113
C         1.55619075608980    6.40058492263084    5.19248346622591
H         1.86920107099606    7.43555224014633    5.08857438527332
H         0.58415974151028    6.38708088546383    5.67656419922609
H         1.45744223641723    5.96782922902896    4.20025105448166
C         1.99399673778422    8.87657064644138    0.37396427799027
C         1.50465753837876    7.76019349838980    1.06054482637306
C         1.06377584866130    6.62026913676408    0.41033926373996
C         1.07629706933098    6.57063845341776   -0.97919376791179
C         1.52723495164368    7.67799747050235   -1.69214368192121
C         1.97107462473608    8.80972085955883   -1.02550406543841

