96
CSD_code = ZOPBUD | q = 0 | S = 0 | Stoichiometry = C44H48ClIrN2 | MND = 8
Ir       11.66214771191009    3.03053820457293   24.78710592144583
Cl        9.84919273598827    1.95998656761043   23.69433202781319
N        13.03657302560045    4.45189561464526   22.54909380372420
N        12.65615193122819    2.37313492649214   22.03930141939583
C        13.28884401227440    2.02505528597447   26.08932611742434
C        12.07625597718014    1.36755000017727   26.34448540551006
C        11.14372794791518    2.33188221856599   26.88504748693595
C        11.81061376477218    3.56683338304369   27.01035550357383
C        13.10919017170800    3.42363631406387   26.41433591965369
C        14.58873796207579    1.38962886002055   25.70472733570563
H        15.11805137902812    1.06238820850768   26.60258661183513
H        15.22950895089615    2.09566943990598   25.18045606100051
H        14.44027938887816    0.52025498977204   25.06623762182364
C        11.79100131090510   -0.09585242186607   26.23129029030510
H        12.58161315148375   -0.61262592246284   25.69025885382070
H        10.84856192231295   -0.26476997194922   25.71058914024046
H        11.70797780805505   -0.54010688585128   27.22529651723923
C         9.80468913601110    1.96405249750985   27.44161704507111
H         9.92417265994510    1.38025754064469   28.35713076939011
H         9.24466450650094    1.36110899571997   26.72791480933736
H         9.21823686730494    2.85033544544994   27.67338235938973
C        11.31715933458281    4.78843721968270   27.71690470740067
H        11.73829775865211    5.68886550498161   27.27496618132127
H        11.61744562524998    4.75319250741209   28.76656455520789
H        10.23178695441612    4.85750993756822   27.67852426179519
C        14.20989464912478    4.43429616205129   26.50717033624451
H        13.82454778981626    5.44387294549247   26.38072336408635
H        14.96398456923712    4.26591945865812   25.74110838986261
H        14.69665705856182    4.37289770456494   27.48309756771810
C        10.80642637503558    4.85327329431771   24.14632677175132
H        10.34209894558096    4.74480607285457   23.15948143687542
H        10.02740021106485    5.14415786868399   24.85402934081182
C        11.87667817813297    5.86651655208641   24.10700697330456
C        11.81859726836943    7.02090397219342   24.87996534868821
H        10.94372349775501    7.19550694236860   25.48958978276514
C        12.84304567192433    7.95350936993370   24.86997856056497
C        13.95928865469413    7.69788574788944   24.08752360237433
H        14.78006841703822    8.40107693237102   24.09739768696384
C        14.06924847477995    6.55142558315608   23.30953329045786
C        13.00367009642071    5.65137751661936   23.29156218361962
C        12.75557740543633    9.20888161242024   25.68462872341651
H        12.44040900727954   10.04082905626138   25.05426460225073
H        13.72382853385759    9.46190357578012   26.11198189927418
H        12.03169447380038    9.10116767931919   26.48875863644868
C        15.35516343855618    6.31331455884821   22.57090956574801
H        15.25767747974637    6.55920671433685   21.51341405111182
H        15.66906274868640    5.27562344348279   22.66542026257300
H        16.13844617428684    6.94411860547314   22.98495944588995
C        12.56327913388225    3.27940447655780   23.01170758720891
C        13.35887809522824    4.38960071715141   21.12833330554922
H        14.41348892333282    4.59631440008337   20.94179569752545
H        12.76253947505090    5.12753197331862   20.58694786283128
C        13.00140413624895    2.94638741272910   20.74590470939772
H        13.87184306624466    2.41988199275584   20.33334669246380
C        11.83851103613543    2.80330080586497   19.74185919713001
H        11.67436735761214    1.72969637624542   19.60332303500081
C        10.54575108559632    3.41700003757510   20.27017888117116
H        10.27848842502949    2.98623342081484   21.23297357024549
H        10.63672834766651    4.49466568335785   20.38450430597420
H         9.73416795724006    3.22173863073574   19.57406995953974
C        12.22932974240742    3.39141864320486   18.38776721948885
H        13.14723619198602    2.93699340295252   18.02009955801083
H        11.44146420233449    3.20594108727106   17.66236725454337
H        12.38021284774745    4.46625078027038   18.45295986634443
C        12.47035932240815    0.95384636731906   22.18371631306401
H        11.60863827350258    0.62155953018515   21.59840168186418
H        12.23178315702772    0.76584102226009   23.23463886318690
C        13.70673351215556    0.18803496217750   21.79426102510758
C        14.97234914939699    0.66496642697311   22.16815861521313
H        15.04802385785634    1.61024314245906   22.68499732729894
C        16.08685548463611   -0.09210908718247   21.93185514788321
H        17.05519473098273    0.23621490462226   22.28248332792369
C        15.99669504434567   -1.32764061347034   21.26682351274682
C        17.12366530138604   -2.18218426550225   21.16132508606377
H        18.07451554599437   -1.83326873234423   21.53796915681401
C        16.98426417603141   -3.43842844509804   20.67153978040256
H        17.81488156393943   -4.12972858812493   20.67614528494980
C        15.75745537450402   -3.86889159793051   20.10240340414413
C        15.62475219546511   -5.19831995149866   19.62320941729763
H        16.45878471871585   -5.87329775014052   19.75277125383938
C        14.46948950295802   -5.62238498431480   19.05584451587866
H        14.34511627105104   -6.65102374138762   18.74927809641581
C        13.42668700995767   -4.70095334560102   18.77653460594866
C        12.29890468686381   -5.09624229539477   18.03625323073260
H        12.20033200979891   -6.13708783219892   17.76219476617694
C        11.36116114797106   -4.18084392187062   17.63854427520880
H        10.49693478849980   -4.49161446436773   17.07044091798548
C        11.55850993652555   -2.82689135649851   17.92228437212068
H        10.86628709523522   -2.09399566464803   17.53426762115058
C        12.63195581126653   -2.42179787786124   18.67384895775637
H        12.80184274818433   -1.36665277176776   18.82033899601732
C        13.55720074178207   -3.34996399452464   19.18873310458663
C        14.67255036005708   -2.97951254721898   20.01436695478991
C        14.74265268192973   -1.75419753520513   20.75989728504653
C        13.60786649831525   -0.99751828210276   21.10543890120357
H        12.62569616340904   -1.38564638002896   20.88573294957309

