65
CSD_code = ZOPJAS | q = 0 | S = 0 | Stoichiometry = C22H36Cl2O4Ti | MND = 6
Ti        4.77784474346350   12.63247133851455    7.80387281721168
Cl        2.85254084154486   11.60572612391953    7.21046235182115
Cl        3.81206998963043   14.55213132754996    8.48294534212572
O         5.68924068322405   11.17086203771882    7.32384405148718
O         6.39606353189447   13.28022256536272    8.19884638718282
O         4.86311237982530   13.40162875740225    5.96895560899593
O         4.51582885850334   11.93477771312071    9.64969201664394
C         7.01085140298463   11.22023754585596    7.46426856428196
C         7.43040128034657   12.47276964893824    7.97910934609034
C         8.77999945583374   12.75918441838559    8.20355609669470
C         9.67436711981304   11.74016928617605    7.89702691727751
H        10.73058442735941   11.89311484572909    8.04692977068594
C         9.26379015304379   10.51239060460361    7.39856476701344
H        10.02360218531934    9.77736702145971    7.18934429658706
C         7.92760500775152   10.20843815235046    7.16420130778086
C         9.17714389681278   14.12196245906946    8.74697754347180
C         8.49163031223480   14.32952338972219   10.10522382767913
H         7.40954521196077   14.29960320706852    9.98723882677574
H         8.76481910565075   15.29743047185902   10.52027230192514
H         8.79630354889294   13.55260664830918   10.80525373560015
C         8.69262533241592   15.19982402398935    7.76624138312562
H         9.14353216207829   15.04939411486927    6.78614186976813
H         8.96853067336779   16.18838275182112    8.12731378966345
H         7.60860746474799   15.15903302134770    7.67038881203758
C        10.68958612639463   14.26274362647389    8.92945902834021
H        11.20950370852660   14.14374327987289    7.98176395534710
H        11.06704985597948   13.52767189178673    9.63642866004384
H        10.91652051602545   15.25351657028637    9.31781032868543
C         7.43091464314659    8.87882665271333    6.61996764256146
C         6.46986981429997    8.25765752023100    7.64376863553416
H         6.97820144580804    8.10383091049968    8.59472095893163
H         6.10658937523465    7.29705052871081    7.28445699526658
H         5.61403738657439    8.91308353387333    7.79730258804081
C         6.67338314630374    9.13504409408638    5.30934604082322
H         7.32712401342451    9.61497547403837    4.58235753276183
H         5.81327323390770    9.77617822833674    5.49511937764788
H         6.31750728641299    8.19599668461081    4.89056546558785
C         8.56941655629709    7.89347664131780    6.34865720846932
H         9.26096277791195    8.29087853150159    5.60947742906122
H         8.15842327043683    6.96320674939212    5.96174756834838
H         9.11582704755941    7.66787914238825    7.26140494134741
C         5.96823389315800   13.27029018972289    5.06393877767981
H         6.08427677900346   12.20373378875529    4.82104789619519
H         6.87846095921292   13.62717244226192    5.56240841665573
C         5.60398919891777   14.08813521557890    3.82547656062809
H         6.03963613507943   13.67261840105528    2.91998069391952
H         5.93797364088890   15.12046119284447    3.93847291786793
C         4.07886425543173   14.02281266572612    3.84585479257115
H         3.60751529377872   14.81999819752004    3.27695250424820
H         3.73295125013897   13.05869250203629    3.46999223313860
C         3.79919748098889   14.13344204986516    5.33871416326752
H         3.83897474203544   15.17772950220103    5.68210909740688
H         2.84846071373893   13.68398711386502    5.64650451335877
C         3.31214606366996   12.08552275264732   10.41866452443694
H         2.46039483704427   11.96885355804873    9.73946115000775
H         3.29557537112617   13.09402807574271   10.85790586377532
C         3.40161224860689   11.00869884580605   11.49150748216392
H         3.12007182281826   10.04019345515240   11.07516076943065
H         2.77281813346473   11.22672028326039   12.35079312608073
C         4.89371887379322   11.03900829906941   11.81353235783955
H         5.11914191703345   11.88077859450911   12.46968549398821
H         5.25134363687977   10.12335248647963   12.27846844773019
C         5.51066038055315   11.25866073440458   10.43185064561937
H         6.41850309808147   11.87467502877312   10.46244820930627
H         5.73944930160356   10.30422308941121    9.93574327395847

