97
CSD_code = ZOPJOG | q = 0 | S = 0 | Stoichiometry = C34H56N2O4Ti | MND = 6
Ti        3.78249580301285   11.34882553504149    6.75041086167326
O         4.11729356814763    9.98747157051669    7.85009595362211
O         5.57166843017407   11.63507404602201    6.70087673933421
N         3.94893995026988    9.90983562980655    4.98497108846589
C         5.28683257734314   10.19017089032587    8.47801423234962
C         6.11612567571729   11.13577615769655    7.82207834208181
C         7.36896867723861   11.47075479280838    8.35017909484263
C         7.75515897405903   10.80246339875025    9.50847116848623
H         8.71510809091199   11.01260789372066    9.95157960865055
C         6.94461742456824    9.87520538492882   10.13839406992432
H         7.31452012744397    9.40940204989841   11.03725722351169
C         5.67905716497529    9.55282860584279    9.65745419468609
C         8.19523568129350   12.58098325165264    7.71709717299915
C         7.39201788958887   13.88274955329381    7.86106345473466
H         7.33857668724635   14.16905366424349    8.90937444297522
H         6.37608996510854   13.73727767636756    7.49998481692091
H         7.86039984128078   14.69183574250834    7.30209607574171
C         8.43244202242470   12.26672989599807    6.23389288653467
H         9.01521149522457   11.35278631824383    6.13391431080557
H         8.97454329182681   13.07982304276870    5.75297533590622
H         7.48091852023214   12.12772953260122    5.72821643918608
C         9.55983473130526   12.77338779590169    8.38358094933138
H         9.45072837160115   13.05424841821745    9.42792257826024
H        10.09988992117134   13.57065538130094    7.87527311237001
H        10.15577117190038   11.86566819434301    8.32117337334973
C         4.72294685434738    8.59735467668912   10.35619288755959
C         5.31857843072910    7.99373738702054   11.63081395543549
H         6.21321864755332    7.41630200002731   11.40862324812940
H         4.59029435095863    7.32747286022427   12.08984509183951
H         5.56707682753002    8.76965931231732   12.35068290247120
C         3.44797572484613    9.36871003724074   10.72859523988478
H         3.68151377291075   10.14771343412514   11.45111402185070
H         2.71332465028143    8.69677582469963   11.16926336386365
H         3.00877346036281    9.83764476151718    9.84826043820953
C         4.36617673737313    7.45248512902582    9.39789201632048
H         5.26594633058694    6.92156280131900    9.09058720097763
H         3.87228383178460    7.85237910687977    8.51601364468834
H         3.69373991598253    6.74736731344057    9.88325360970482
C         3.51935765887753   10.63116052319886    3.78744256114705
H         2.42550735685558   10.64895310132521    3.77464347689302
H         3.86176175740524   10.11615760390113    2.87207392255752
C         5.32771343410830    9.44213140964078    4.84501927633322
H         5.41938647069552    8.74299688094704    3.99812148957009
H         5.62778551406932    8.93246480080215    5.76182455456606
H         6.00841258354000   10.27826809888412    4.69344063659712
C         3.09709493681720    8.73881494169207    5.18652056490370
H         3.16374703142344    8.04998047246954    4.33017911841257
H         2.06278479928679    9.05201767111042    5.31954824287972
H         3.41576433646171    8.21770749907807    6.08913706461745
N         3.61700749355599   12.78758301300667    4.98485277464815
C         4.04631361123371   12.06613124714645    3.78729927697470
H         5.14015822685945   12.04834738706714    3.77420071224732
H         3.70368445248057   12.58100997617367    2.87194817151475
C         2.23834776232754   13.25564435099284    4.84493102131073
H         2.14680527766278   13.95480464144971    3.99803617885398
H         1.93843340261180   13.76538176613864    5.76174970382957
H         1.55744789274440   12.41966024103974    4.69337979737808
C         4.46916393089390   13.95838631478499    5.18637348583555
H         4.40264061350411   14.64729825273884    4.33008147479659
H         5.50340347365874   13.64491170731507    5.31931607118162
H         4.15071327429313   14.47951359906117    6.08905627512171
O         3.44710630774860   12.71060491110834    7.84943910222376
O         1.99341364217215   11.06220636640995    6.70029156483466
C         2.27790131469566   12.50691518838560    8.47767975560047
C         1.44903638040917   11.56088567099847    7.82181187192682
C         0.19664467335503   11.22486220766233    8.35030657071941
C        -0.18968609584658   11.89273768264859    9.50878016228003
H        -1.14917783630970   11.68153724702517    9.95237048920527
C         0.62035089249695   12.82055466484517   10.13855310507486
H         0.25055339350053   13.28568709295860   11.03780578424473
C         1.88557965131642   13.14380789053521    9.65732310158183
C        -0.62889485436181   10.11396023976168    7.71751965562636
C         0.17561891527404    8.81295059163135    7.86116950366485
H         0.22933999126001    8.52662573329532    8.90946048140117
H         1.19142182019510    8.95931647091330    7.50005639255264
H        -0.29215344570082    8.00354031471955    7.30216505002126
C        -0.86653306906838   10.42816705925321    6.23437340444209
H        -1.45033573388204   11.34147220154914    6.13465547844621
H        -1.40801360828876    9.61456403474821    5.75365860749134
H         0.08465875563319   10.56821137342682    5.72829899389154
C        -1.99307797022709    9.92059066574887    8.38462157439753
H        -1.88348219587294    9.63969784782379    9.42891483320323
H        -2.53253423893409    9.12290105839533    7.87638014024883
H        -2.58985831647422   10.82777338751032    8.32241072768124
C         2.84125031963507   14.09983825995521   10.35594373882541
C         2.24582573808016   14.70288575415575   11.63092395803261
H         1.35064481043426   15.27965381877517   11.40923198533565
H         2.97371768646669   15.36957806581899   12.08999171351017
H         1.99815089248467   13.92656460003372   12.35062438876712
C         4.11696297471325   13.32948679711067   10.72787192920105
H         3.88436504464135   12.55013500348516   11.45031951391048
H         4.85131116775717   14.00188255679545   11.16835815168925
H         4.55617820570734   12.86106104574155    9.84727847776974
C         3.19678353615853   15.24537864661569    9.39796690763527
H         2.29645037365656   15.77565234193204    9.09114754288509
H         3.69057589542945   14.84590039009791    8.51584739665340
H         3.86897410108060   15.95087825082635    9.88318694518927

