43
CSD_code = ZOPMUM | q = 0 | S = 0 | Stoichiometry = C16H15BMoN6O4 | MND = 8
Mo        7.76639431688845   14.67512706472106   22.26534088872923
N         5.52266389489538   14.56716610003683   24.37273996315269
N         7.73615849190946   14.06965569057859   25.28539369162112
N         8.46775729455222   14.65191223723329   24.33184219328898
N         6.94867785472258   12.80018525292899   22.68636003418918
N         6.53322784040088   12.40369949818028   23.88881298751511
C         4.35943548816549   15.09820141162444   24.76667670895758
O         7.70193084847457   17.73601137581159   21.88028318746335
C         9.87963819396667   14.65121574571655   21.87289294986693
C         6.90931845671086   11.74738717107336   21.87688421451029
C         9.45270281882454   14.99636646278993   26.30614849954824
O         6.12406035460464   14.95386579593026   19.67599510480193
C         9.50488965804799   15.22152417571737   24.93263532781891
O         9.11604286061944   15.52136508369277   19.24568584416726
C         8.30412824280925   14.25762525004095   26.48541979628557
C         9.04272682131652   14.19080146776299   19.54337901102389
C         9.40310146520883   13.76622463900109   20.89359353370202
C         6.80307435000729   14.77929825456166   20.57693635438241
C         7.99258380832824   16.59930369378731   21.99665833211498
N         5.94623880109617   15.17285517304685   23.26152831274140
O         8.69003470648275   13.42822738362359   18.67495508469178
C         4.01579253464531   16.09201344375747   23.87223881942456
C         9.74776817708731   16.41340492141554   20.13303658808142
C         5.05058691300734   16.09871957649287   22.94092125491073
C         6.46330745204985   10.63319473260181   22.58276556958203
B         6.36853735930519   13.44750297457967   24.99393147568229
C         6.22866207976023   11.10069998222761   23.86111302524046
C         9.54518535731903   16.07652886367580   21.61099473209760
H         3.85360719493079   14.74482059323692   25.64242373933961
H        10.70421648329442   14.38411128641282   22.53341186171086
H         7.18248227235241   11.82980620081153   20.84005203842377
H        10.14787544768005   15.32576335293713   27.04990595628485
H        10.24627017776329   15.77589393251439   24.38905114337016
H         7.86435192165470   13.86111759724190   27.37742080264080
H         9.67627616030709   12.71341619456558   20.95966276579529
H         3.14765612350865   16.71720685448454   23.89064012973864
H         9.33860135067110   17.40345746601547   19.89805339968739
H        10.83010255540469   16.41869004110393   19.91992334278907
H         5.18202751863464   16.72527196478219   22.07845225764436
H         6.32763321349614    9.63762769664362   22.21460348445048
H         5.86923207840057   10.59243814261840   24.73282689729145
H        10.15108697184329   16.75829714471328   22.22100433521134
H         5.87515408885169   12.99579810933184   25.96660435995918

