66
CSD_code = ZOPTOP | q = 0 | S = 0 | Stoichiometry = C29H32Cl2N2Ru | MND = 9
Ru        5.28836648990200    7.89766746456067    3.58841436699959
Cl        3.68792299894905    8.87952474751316    5.01406574773307
Cl        1.02414553264183    4.72492023959588    1.37577383359231
N         5.13666524013802    5.64944741729933    5.42443207527657
N         6.62041661217178    6.97547801960986    6.24852489571321
C         6.52241084293044    7.50318491794321    1.76571359835614
C         7.31362318325933    8.14754881203274    2.75263570196842
H         8.27171787410977    7.71756896278831    3.02922312180809
C         6.99330072202152    9.45051050759254    3.21740152957225
H         7.69353158502184    9.98481162892735    3.84924451385011
C         5.78938018555431   10.05256801864836    2.84068953245870
C         4.95522909977926    9.38934256144722    1.89502317647790
H         4.06382394945605    9.89230200143028    1.53571946041374
C         5.34162242718699    8.16439743622641    1.34178211213617
H         4.75744211481650    7.72933524383954    0.53757368132376
C         6.97667279116682    6.22561583666840    1.09785656437036
H         6.17028389221463    5.88163690694501    0.44014961383879
C         8.21696723254218    6.49503447296438    0.23923667927877
H         8.01396871510574    7.27441095565132   -0.49265695159957
H         8.50812639101031    5.59168152912258   -0.29125769682711
H         9.05339498836816    6.81391187420399    0.85764709277832
C         7.24685826061976    5.12144210648114    2.12168979578050
H         7.48625434545728    4.19047927347570    1.61333684957355
H         6.36219552897971    4.96672261320002    2.73867370886699
H         8.08174270679363    5.38164634091915    2.76855021355506
C         5.38100282482946   11.38910017204978    3.37971582533731
H         4.57798242230737   11.24645355351728    4.10832322784260
H         5.00400140783071   12.02990944282952    2.58372620029386
H         6.21301407205810   11.88528812075495    3.87590189547799
C         5.79543194504317    6.81399762578652    5.19651029316876
C         5.55181198243013    5.08571370872407    6.59856989425921
H         5.16320581486711    4.16440925255091    6.97897478731224
C         6.48599696476104    5.92014003690025    7.11507214222973
H         7.04371577573767    5.85440300560575    8.02621531922682
C         4.14172735301990    5.32170523319619    4.49830765933022
C         4.00799808618600    6.30793186294886    3.50302156587706
C         3.01452254942176    6.10695354346143    2.55598468287402
H         2.81721194425163    6.84360917634923    1.79057036487490
C         2.23696959584746    4.95832881895292    2.59123567670482
C         2.39986647749714    3.98974711661477    3.56743461201576
H         1.77694886444494    3.10984443705274    3.57062739518920
C         3.36209185055162    4.17945100947082    4.54451282380014
H         3.49097753129447    3.44757098180522    5.32750079604167
C         7.47264557709761    8.12983564173410    6.45293671552505
H         6.95999653746337    8.98173724378588    5.99556811116573
H         8.42117796863995    7.97302383195996    5.93026532017824
C         7.70667661843245    8.38386206787680    7.91920905868813
C         6.72757595503490    9.05235094433876    8.66093482695131
C         6.93433914197556    9.25714798246123   10.01717436640184
H         6.17854907883846    9.77282105517740   10.59214589746503
C         8.08388588568580    8.81463589723894   10.65454549521954
C         9.04096154075996    8.15084951345895    9.90310108980581
H         9.94069852089119    7.79622901143903   10.38616519967862
C         8.86742335298065    7.92390996163417    8.54512563999935
C         5.47672157289631    9.56414747726660    8.01860895137733
H         5.70245353888619   10.39273758197297    7.34727252349903
H         4.78367080850006    9.92671721649740    8.77242711171216
H         4.97043709934615    8.80332714129507    7.42786841218383
C         9.93538448037994    7.18789825524159    7.78564737599654
H        10.42124436502388    7.84737711537584    7.06597858869273
H         9.52500391464837    6.33567536521246    7.24566293800974
H        10.69703334680152    6.82225631223675    8.46970334337333
C         8.28934477608070    9.06613830815931   12.11705566637039
H         8.64713855898861   10.08439434931680   12.27235283967527
H         9.02514428386743    8.38125053411293   12.53151826431676
H         7.35475190419370    8.95423020455153   12.66238388456850

