66
CSD_code = ZOPTUV | q = 0 | S = 0 | Stoichiometry = C29H32BrClN2Ru | MND = 9
Ru       12.09608828727983    7.95984625576107    3.61721535789077
Br        7.70025348813752    4.72834729389919    1.36005717392842
Cl       10.50422944008946    8.92746697198041    5.06349588719155
N        11.97723238374236    5.72306597774665    5.47065974700133
N        13.47498162064400    7.05477381306079    6.25880609146101
C        12.63252305838513    6.88605470580103    5.22222881021111
C        12.41210506425308    5.16782510757102    6.64199357348902
H        12.03007484438026    4.24948657622303    7.03603213653730
C        13.35482919178981    6.00601557732199    7.13555549903951
H        13.92807768104594    5.94684548884138    8.03741774224151
C        10.96915932662805    5.38752246932189    4.56301791993676
C        10.82594241436124    6.36325508327895    3.55784203300080
C         9.82129594804472    6.15296219387929    2.62467257573474
H         9.61729817886108    6.88032433784397    1.85157623786713
C         9.04605042645431    5.00607669550187    2.68816354522227
C         9.21307243576872    4.04809624535735    3.67191836217068
H         8.58821869576174    3.16926751392651    3.69385284085290
C        10.18720355596987    4.24780288464076    4.63516529283203
H        10.32291325706797    3.52568368764763    5.42601325928005
C        14.33076174257644    8.21011925769204    6.44216655073400
H        13.81062861606152    9.06023701050983    5.99024330348543
H        15.26984203964901    8.05056143924321    5.90354270283032
C        14.59082052923884    8.47085821217450    7.90287749202334
C        13.62620282676109    9.14595753079796    8.65823367180704
C        13.85879021627506    9.35982562140651   10.00826339349112
H        13.11598258902445    9.88158757521974   10.59454682400726
C        15.02004832201210    8.91961882912979   10.62738594506515
C        15.96065435495199    8.24781448807182    9.86369725184604
H        16.86888877638548    7.89434613898604   10.33137227924023
C        15.76132266500240    8.01199301220750    8.51022654422724
C        12.36478984635258    9.65699325897341    8.03552395932547
H        12.57941924483350   10.49060909153599    7.36655587652064
H        11.68115349466402   10.01321299914259    8.80094093601043
H        11.85241782472843    8.89773244486850    7.44802348844735
C        15.23725470239984    9.16754692421977   12.08876984953100
H        14.44319164228988    8.70428051448164   12.67302232260185
H        15.22138339046828   10.23648542424745   12.29722634952056
H        16.19158265828098    8.76348579350210   12.41678279326338
C        16.81374213577352    7.26884800950766    7.73618734581294
H        17.58723426129824    6.90638594849130    8.40850103122784
H        17.28750669131228    7.92232691071129    7.00310397056064
H        16.39202987077121    6.41360377743817    7.20978418321824
C        12.55328825127579   10.11953360874507    2.85257816214500
C        13.77017232273712    9.54002555940189    3.22348092683787
H        14.46604822613258   10.09024866172646    3.84637269319561
C        14.11019813878669    8.24121911764199    2.76255149289147
H        15.07788207572199    7.82958217076031    3.03347830512122
C        13.32286120765230    7.57786945944655    1.78521813095798
C        12.12637439868152    8.21485182586357    1.36897545903627
H        11.54387992131610    7.76605474908328    0.57086675098313
C        11.72267017894456    9.43612452346327    1.91904813567002
H        10.81981720945332    9.92121530863196    1.56376439468303
C        12.12783314597909   11.45312210448849    3.38517221499838
H        11.33599553301683   11.30380334883484    4.12452811721335
H        11.73029983879378   12.08003423826841    2.58814202111282
H        12.95673955233362   11.96808715622577    3.86717520691278
C        13.79458778289816    6.30490003628665    1.12044864373180
H        12.99056397052002    5.94427819870142    0.46862469595951
C        15.02491835134177    6.59095724093572    0.25315426002253
H        14.80418175180319    7.36311779973797   -0.48118990471431
H        15.32769135833073    5.69000879807601   -0.27483246156237
H        15.85974174459339    6.92674038407882    0.86473744378190
C        14.08990298605735    5.21053627226187    2.14806822352905
H        14.92647297338027    5.48661094830199    2.78612048224758
H        14.33845661791203    4.28017382513498    1.64303556361583
H        13.21352472254694    5.04625557173004    2.77471889092867

