72
CSD_code = ZOPVOR | q = 0 | S = 0 | Stoichiometry = C33H35BrN2Ru | MND = 9
Ru        2.54173951618336   14.99604978252868    5.21673099093862
Br        4.72003991752751   13.80905154967126    5.49415635799083
N         2.42627309309195   16.00385266398652    7.94242507956247
N         1.50578831791547   14.01945358384736    7.93997771065839
C         1.33085304578507   11.63072105898416    8.56754746406173
C         3.43766812104760   16.67488311231421    5.96120932309734
C         4.23180750734955   17.53991716845297    5.22860523305723
H         4.49832298952623   17.30274221332574    4.20589238860365
C         4.72159719695458   18.70837765922479    5.79548930991422
H         5.33421405817136   19.37432186339710    5.20504224546734
C         4.43967724347259   19.01694056511716    7.11369403233360
H         4.82698791804069   19.92381313794479    7.55345736060142
C         3.67698554670817   18.15533843503471    7.88531368653666
H         3.48946326621023   18.38751080831346    8.92057073271561
C         3.18618662074389   16.99861343256210    7.30438612491338
C         1.91386404301924   15.82228737301558    9.20779561659411
C         1.87030168516505   16.61210415665196   10.34723280364874
H         2.30910057887175   17.59457178731116   10.37703027459560
C         1.22930193450166   16.10333258956362   11.46180754444653
H         1.18318036854492   16.70058529111238   12.35957871254058
C         0.63845372332628   14.84454840691512   11.45005254539220
H         0.14325992320435   14.48351003508504   12.33829321018459
C         0.66725244039922   14.04650545756764   10.32153312030485
H         0.20681907728039   13.07305767736910   10.32101046559756
C         1.31543251534234   14.54286214885746    9.20127791047784
C         2.15199459489105   14.91845954009161    7.16472650897293
C         1.17186944309681   12.68185921690590    7.49717103187868
H         1.85005863775010   12.45614680537657    6.66216026583563
H         0.14704317817286   12.68239024837931    7.11741324892467
C         3.76302382002233   12.28339949679142    8.84658050925155
H         4.67003542317580   11.80930070719092    9.21134286616651
H         3.69540595414490   13.26741294287674    9.31060656436829
H         3.86764093454498   12.42687609060863    7.77427067924771
C         2.56902413842730   11.45072154306784    9.19117209742202
C         2.69712617092408   10.47435558717825   10.17088916461182
H         3.65609296924503   10.34230097051960   10.65085984972814
C         1.63588364553582    9.66738105844729   10.54145543779336
C         0.41788215096047    9.85088074809146    9.90252618639149
H        -0.41915974059718    9.22378843071768   10.17629016990357
C         0.24853180801144   10.81707175786478    8.92327836999673
C        -1.10448687810973   10.95679089522146    8.28105047261041
H        -1.80143279535743   10.25065524376965    8.72556026965296
H        -1.05436110148786   10.74894171271139    7.21242687575555
H        -1.50879109571532   11.95974799779232    8.42046747261421
C         1.78156414637943    8.62541936860740   11.60804960776177
H         2.82678035623434    8.47806329298732   11.86679075629525
H         1.36395023037823    7.67637724426359   11.27646334223731
H         1.24446142214789    8.93009704372418   12.50648160862344
C         2.73043020788828   12.33472519244959    2.82046224017681
H         2.84321860929903   12.37882878866515    1.73735534558107
H         2.13323559121858   11.46316312044724    3.08104855874563
H         3.72504594514317   12.21134765674148    3.25504933814155
C         2.09918946299273   13.59405117429502    3.33133939986428
C         2.61440009717765   14.85669881982856    2.91519542244790
H         3.44257468779327   14.87695250474886    2.21347193476652
C         1.98345886425990   16.04470756441147    3.28943274851719
H         2.30877376426136   16.98649732364772    2.85917072180008
C         0.87778398900140   16.04030277747686    4.17907676092353
C         0.42418039700237   14.77837928601543    4.64841531670078
H        -0.47823041483464   14.73131585650953    5.25169516683556
C         0.97300880972762   13.56677382318441    4.15559227501553
H         0.50658250905131   12.62051496135772    4.40441632017752
C         0.10566287846792   17.31231282133422    4.44419667767352
H         0.71549151471012   18.15702720702152    4.10189814657941
C        -0.19244221991470   17.52696747571237    5.92835729871385
H        -0.72393512518364   18.46573536471321    6.06660873055940
H         0.73657269550308   17.57223331540266    6.49289948120538
H        -0.80960400941578   16.72667843400521    6.33124499969087
C        -1.19052257432446   17.29026281281207    3.62526065277805
H        -0.97416143016199   17.15174535116086    2.56741658058637
H        -1.72704458971509   18.22821868799688    3.74704061536671
H        -1.83827772131727   16.47916977807913    3.95261166676577

