70
CSD_code = ZOPVAD | q = 0 | S = 0 | Stoichiometry = C30H35ClN2ORu | MND = 9
Ru        5.20522001581625    4.88032089779747   23.40565710733544
Cl        4.24330658778739    6.47823971639783   24.85095162247032
O         8.11474272004722    8.91582333366198   21.30581632434424
N         7.49487852978002    5.06987907843307   25.18873514122360
N         6.21656066004247    3.56288050735801   26.04458922285139
C         6.77551085291947    6.18536035554923   23.27682362232797
C         6.94116061489368    7.17389105188613   22.32743605141928
H         6.19420175125507    7.36491494319868   21.57045190966002
C         8.07422170157558    7.99459102047418   22.31515670214837
C         9.06015156462541    7.83735376537879   23.28124017065877
H         9.93837298400362    8.46255590380039   23.29446740299106
C         8.90862915289227    6.86996497343712   24.26312621802888
H         9.66329604894956    6.75940646357866   25.02791703568603
C         7.78554070762277    6.06770423712595   24.25090538228028
C         8.09421916412209    4.66516218832726   26.34749054000271
H         9.01765528279208    5.07043953397019   26.70496204994474
C         7.28985510826143    3.71563241439257   26.88509710296401
H         7.38829883366271    3.15971952210432   27.79435231289686
C         6.33774924992253    4.39221353250997   24.98903785885071
C         9.19525807674286    9.81275309892597   21.25941348929116
H         9.25432668116036   10.41989366121711   22.16882573080623
H         9.00427148958397   10.46253316316550   20.40627370620722
H        10.14711122579211    9.29143523831196   21.10917111522887
C         5.08471576534604    2.68786891386372   26.27340908586283
H         5.25171730003048    1.73987819249319   25.75264550029279
H         4.21450138499408    3.17984316903195   25.82801777282478
C         4.86116581672551    2.45612595890081   27.74485384279668
C         4.18662228937449    3.42621805643043   28.49369271129722
C         4.00709694891239    3.22083216053879   29.85323710962674
H         3.48574027179205    3.96809003251771   30.43436933186493
C         4.48062069883442    2.08148682693876   30.48794735167171
C         5.15098793277512    1.13492223783962   29.73045875552568
H         5.52989294893719    0.24325751059079   30.21023564064060
C         5.35292526251706    1.30749501144525   28.36783574151785
C         6.09613141350963    0.24981828891575   27.60090106146360
H         5.43564209755285   -0.24837492805087   26.89060086422469
H         6.48363719826785   -0.50424305390621   28.28154431173523
H         6.93411199090273    0.67358352890068   27.04891826090900
C         3.64124538957672    4.66410906218974   27.85418624987768
H         4.38403837329837    5.18317860694299   27.25125513770944
H         3.27498069180438    5.35263423004213   28.61065151599045
H         2.80879243722030    4.41976240534418   27.19399741641156
C         4.27627086617036    1.89636733138399   31.96076350152410
H         4.83967561115637    2.64630077547523   32.51552352038540
H         4.60533571412424    0.91085060831596   32.28063731558333
H         3.22474636288715    2.01506310519289   32.21703804257483
C         1.71620522764834    4.84387436196377   23.20142843932368
H         1.18585437244008    4.01863477356230   23.67323540631923
H         1.09898051823254    5.26151164279531   22.40716161041630
H         1.87776859948254    5.62460594089010   23.95064378058556
C         3.04557445680223    4.40154709215401   22.67027961819264
C         3.62461729472140    3.19383256015027   23.07499705871703
H         3.07752661728711    2.51918105950271   23.72356567373033
C         4.92154186118373    2.84132535181258   22.61959568998349
H         5.33454378237784    1.88208975960935   22.91807710032623
C         5.58006246962107    3.59715535526987   21.61284468090218
C         4.94374009670650    4.78190602176608   21.16618679737228
H         5.39211372394137    5.34347471287811   20.35319927081412
C         3.72236194437842    5.20173169373318   21.70695160018057
H         3.23621535048183    6.09339567144004   21.32597443547655
C         6.84980825516201    3.10370055988959   20.95805209289415
H         7.19495726816498    3.87724682681149   20.26222827977525
C         7.95755519385177    2.87423229266038   21.98859234443758
H         8.12384753465504    3.78852654582376   22.55751325380204
H         8.88322060172618    2.59759060085448   21.48898219411241
H         7.68973640774792    2.07777186310262   22.67964466831875
C         6.56944283042370    1.82709150391666   20.15763103248237
H         7.46938588137114    1.50616073438732   19.63804484480671
H         5.78846366667829    2.00207298524206   19.42010324378310
H         6.24784227395956    1.02180345743819   20.81474902131641

