58
CSD_code = ZOPYAG | q = 0 | S = 0 | Stoichiometry = C19H31F3NiO2P2 | MND = 4
Ni        3.48792288181630    2.88402034975707    3.28012501519863
P         2.31491995397519    2.41589499540963    1.52823118789759
P         4.41375468961813    3.87325293014312    4.95746834039200
F         4.62422191703142    0.45816123693480    2.32192531197614
O         1.35624798032484    3.71568833761483    1.26652007084027
C         2.55004615166352    4.53612375576127    3.15069196450955
O         3.77267516496116    5.37800864322890    5.00433400549125
F         5.35455849625649    0.92933593828658    4.28331493417176
C         1.60109019702485    4.75197363093606    2.15238647345307
C         2.80477534473625    5.58293678716812    4.03499742906664
C         4.29833172060698    1.18321784959606    3.44371767046039
C         0.92044050220880    5.95386786244666    2.04014981815078
H         0.19368200917736    6.08778016874396    1.25426485014437
F         3.27119342228040    0.44002651535186    4.01606968494467
C         1.19238552140969    6.96534882532526    2.94723777381798
H         0.66439647663815    7.90334366589693    2.87076257672516
C         2.13376378731338    6.79235620748977    3.94880812911620
H         2.35104529737497    7.57888716064404    4.65432632864327
C         6.17977846190771    4.35245705937991    5.22479346608246
H         6.14299572743207    5.20135996744462    5.91899095015999
C         1.04803893755514    1.10337136952559    1.23954773934410
H         0.45972646578874    1.44910611579156    0.37990868576069
C         3.78607105773199    3.14146716028362    6.54161025704591
H         4.31082469882272    2.19102023020541    6.67761172497637
C         3.42658289992865    2.44105707303661    0.04096568854305
H         3.95108850330811    1.48172552263011    0.02364932479169
C         2.66877539959812    2.65737277799332   -1.26104230720694
H         2.05230728730124    3.55191189795478   -1.19521210348560
H         2.02649931171075    1.81002291590609   -1.48910127750781
H         3.37101999546481    2.78369586131385   -2.08357670673794
C         7.03735358225781    3.23474423894230    5.79638478711443
H         7.04042584308925    2.37708653161873    5.13037580661632
H         6.67502695870985    2.91035158671110    6.76844213534235
H         8.06310670946292    3.58163625902810    5.91271927245649
C         4.00782872866762    4.05385226495204    7.74020566784054
H         3.57598112382217    5.03456857939610    7.54981418207623
H         5.06583252458651    4.17827664720323    7.95797014617784
H         3.52584140398078    3.63173750969141    8.62054958879848
C         1.67005125112609   -0.25459422927317    0.95289547050520
H         2.29628099033331   -0.56765588067489    1.78388141875665
H         2.27954329855846   -0.23260161205813    0.05260063991192
H         0.88729773673197   -0.99954980556485    0.81907440844804
C         2.30048889365840    2.86442192026985    6.30808012863844
H         1.88032573329813    2.27128240816951    7.11796337949489
H         2.16007974136298    2.31405249994141    5.36838494606086
H         1.74692991894653    3.80093471040148    6.24031748530109
C         4.44112078585425    3.55319098444110    0.30765695318272
H         5.24558439927725    3.53857387059047   -0.42533612131335
H         4.88025623042671    3.42049359979892    1.30874058599101
H         3.95571410368187    4.52866889111380    0.27202045879245
C         6.71331834270456    4.82369289953951    3.87425345397401
H         7.71829546907301    5.22973724026806    3.97314712647084
H         6.06792265146172    5.59547701467618    3.45539878218193
H         6.74668767524470    3.98522565745949    3.17902794883448
C         0.15780951938654    1.05708515421688    2.47923850736959
H        -0.67135951774769    0.36747602857473    2.33213170983678
H        -0.24829422831350    2.04454747396164    2.69686352582276
H         0.73618986942944    0.72219474438979    3.33902059853784

