43
CSD_code = ZOPYIM | q = 0 | S = 0 | Stoichiometry = C18H16BrN2O5Re | MND = 6
Re        2.57591426951295    2.07762104875344    0.32466263135555
Br        3.60619687380168    1.00269213279354   -1.68134223358643
O         0.47072782904858    4.91360691002202   -2.11777075852190
O         3.67842619269086    3.53185768806996    0.09108714354897
O         5.01623605157775    1.00219677221970    3.59513985192963
O         1.75570196876594    3.26508915290987    1.90276783834037
O         1.52044184445662    0.82156970958223    0.52006540953354
N         1.31217373716518    3.19846746184989   -0.98840350163852
N         3.95276844736267    1.32678882261249    1.67780350041933
C         1.47443058505173    4.41452020859302   -1.38527654050846
C        -0.52583484008847    3.90007164580846   -2.25262087259417
C         0.04280352939646    2.69733181664484   -1.47921700027838
C         2.62652109291066    5.24918578116468   -1.13746012277011
C         3.71922348696707    4.73844215548041   -0.38661213995269
C         4.83165572498100    5.56885049705388   -0.17786639214104
C         4.85785963170924    6.84788072418831   -0.68527756080623
C         3.78409432252564    7.34437705646552   -1.41815655446310
C         2.68131120165440    6.55032402479343   -1.64168381942622
C         4.02455026779058    1.62127140162339    2.94414022053260
C         5.70868860214285    0.15083967293134    2.68422102127036
C         4.99827495697990    0.37024409721641    1.34243289818521
C         3.19140756257893    2.50651117880488    3.70061579480395
C         2.11997525779300    3.25850456653674    3.13166682480888
C         1.39294470273792    4.10186427867422    4.01536336511588
C         1.68498795114198    4.18896570757396    5.34723056456953
C         2.73286852896058    3.44193077095358    5.89447296119865
C         3.46519029058561    2.62303908650361    5.07983061554029
H        -1.45988670392455    4.27907914819684   -1.83013760383361
H        -0.66441443775825    3.69737295775316   -3.31742815251737
H         0.22417545291375    1.82255287541644   -2.11016948769841
H        -0.57345425431066    2.39063873671648   -0.63068934571177
H         5.66289740310044    5.17642878013966    0.38920286063520
H         5.72354338232031    7.47009578710468   -0.51324632788418
H         3.81762201750337    8.34769970408196   -1.81275757527425
H         1.84070414150846    6.91566081665351   -2.21089493609903
H         6.76060317133450    0.44777124549780    2.67048903568954
H         5.62894426424116   -0.87655755805871    3.04847121744525
H         4.54039935185223   -0.53808998106334    0.94153602366717
H         5.65293377544370    0.79008727857916    0.57369375065379
H         0.58460122900365    4.67134736383382    3.58195786748534
H         1.10049984677880    4.83846958433104    5.98267478494409
H         2.95796698683755    3.51155019554775    6.94701517211505
H         4.27732430294956    2.03804869544564    5.48266957191887

