62
CSD_code = ZOPYEK | q = 0 | S = 0 | Stoichiometry = C20H33F3NiO3P2 | MND = 4
C         2.91906207076985    9.91184544227259    3.13421610484500
C         2.25010850721492   10.29503470036695    1.97023953543210
C         1.59716367382676   11.50684633043376    1.86832286686826
H         1.08097460182165   11.78738104204482    0.96540746410611
C         1.60414981720353   12.38322985400039    2.95582676930710
C         2.27419688180925   12.04126742605734    4.12638827160845
H         2.31358567300176   12.69536719621510    4.98153403658593
C         2.92146731582629   10.81638175601810    4.19080258279720
C         0.88568410400773   14.47857906050330    3.82428737854269
H         0.40241927701472   14.05496799316481    4.71047659870369
H         0.29344008847150   15.31505467674287    3.45668162186508
H         1.88638785428234   14.83385598485390    4.09052060442223
C         4.57361199470327    6.52271880105710    3.41714991430354
C         4.00195699668108    8.19567174398670    6.72024982837293
H         4.59540938636413    7.27712680817832    6.75222275107594
C         2.52271487965748    7.83258461848953    6.60548961229722
H         2.20917233864291    7.21089396525688    7.44174448014097
H         2.33983969107938    7.28406686313196    5.68013809117824
H         1.91280425057554    8.73502144680907    6.59543032653163
C         4.27636725353310    9.05124840045063    7.95034139643830
H         3.79077658506902   10.01963502930215    7.84883855562039
H         5.34208278220404    9.20751123725370    8.09823672873080
H         3.87929935855769    8.55960853841669    8.83704429682362
C         6.17237842451799    9.70744683120563    5.34921063310970
H         6.14291449311237   10.42646787862955    6.17679102408242
C         6.50764807597620   10.43761526564557    4.05101191306177
H         7.51860309221263   10.84012096344996    4.07965550349168
H         5.81269012320962   11.25837306155131    3.87695045670880
H         6.43427996727355    9.74293596305689    3.21111223270514
C         7.17634183583684    8.60166195439774    5.63619105466948
H         7.18299202107202    7.87679203189075    4.82655903015754
H         6.93751862252351    8.07725065746701    6.55808459423706
H         8.17675570118220    9.02166994785591    5.72911296478526
C         1.59436645518902    6.84404660074131    0.90204650286776
H         1.13775734054056    7.21712921094254   -0.02350379290585
C         0.59858221601370    6.98581292843225    2.05116212659205
H        -0.27534564650327    6.35859708111422    1.88445392628696
H         0.26831519400446    8.01962825913240    2.14874896218919
H         1.06697509887898    6.68306234050851    2.98789518842194
C         2.04569521496422    5.40178233289590    0.73001069873933
H         2.52310325119150    5.04239877053211    1.63701353658434
H         2.75025133031183    5.30068843681646   -0.09219078931104
H         1.18552854607390    4.76626252069725    0.52519419802927
C         4.19316457771287    7.84393486311807   -0.13912661601179
H         4.60352646066617    6.83089362905722   -0.09865033330289
C         3.53829255486947    8.10057231128546   -1.48914539675234
H         3.01830984477284    9.05612555517407   -1.47919083872273
H         2.82598203761140    7.31812983515472   -1.73935812600660
H         4.29810144161881    8.13024236017267   -2.26844890529753
C         5.31064372176168    8.84138131175781    0.15654482770231
H         6.12210607781783    8.74844678656574   -0.56260555932725
H         5.71012746938338    8.65581197064877    1.15830788743089
H         4.92743511348513    9.86075702183327    0.12028869118869
F         3.40382172308953    5.89214258799970    3.85414017061526
F         4.95114484338515    5.76527732377050    2.33628980029061
F         5.48473879555474    6.15910079110537    4.37621885034477
Ni        3.82778314296078    8.25046238134443    3.24832107769953
O         3.61904737591736   10.46199842692271    5.33360265559007
O         2.26047316715879    9.41009831478370    0.90801242194703
O         0.93049220879358   13.55103027388441    2.76749546158387
P         4.44748750439169    9.06063491710561    5.14767745721001
P         2.99909519916060    7.99281738629606    1.26782669268533

