71
CSD_code = ZOQBUF | q = 0 | S = 0 | Stoichiometry = C22H40N6PtS2 | MND = 4
Pt        5.84127951616259    3.53529750467516    2.20595634151689
S         4.57607028075546    1.66447154498018    1.56527201394912
S         6.94141928767837    5.42275175481651    3.06671882077069
N         6.97424328002596    2.16059297286034    3.11020036718186
N         4.74906884866970    4.90607144288971    1.24805511468002
N         6.57120192853028    0.86319384351608    3.17563549163058
N         4.88814586841372    6.22849175283648    1.53356587354838
C         5.48895571929034    0.55484299884345    2.53682402980813
N         5.01295602230998   -0.70607047909664    2.61382596465275
H         5.59165766937664   -1.41241348717659    3.03336611220299
H         4.28603726695106   -0.98169010360389    1.97786161371358
C         5.82708297207193    6.55098297341065    2.36358298713453
C         3.92198800416965    4.61702464930820    0.30595444279355
H         3.78570253747058    3.57386665391148    0.05780731842714
N         5.97286263030091    7.84287533276967    2.72637169847849
H         5.45239045004472    8.54337358835190    2.22818458712959
H         6.80438438364913    8.10964084732020    3.22250519085307
C         8.12859857078426    2.41800724568648    3.61655378051823
H         8.47652858215466    3.44085050761581    3.58321658610056
C         3.13149226792408    5.61963579887167   -0.45909726782355
H         3.67482280166250    5.85339648746647   -1.38066639481265
H         3.06489093418630    6.53802526317097    0.12694797562059
C         9.01367964263461    1.40617894730449    4.25573117570243
H         9.73501227197447    1.06046422769181    3.50795001967538
H         8.41003239299967    0.54745013729734    4.55469407882986
C         1.73271214147027    5.09523978262956   -0.80825467159259
H         1.84353778057776    4.14510702090395   -1.34358768704583
C        -0.29798282989489    5.57147341482100   -2.29103857215255
H        -1.01372456489640    5.41663889271378   -1.47808445848933
H        -0.13272234226161    4.59707844140067   -2.76097626266753
C         1.02308608890664    6.09278709804424   -1.72933163048576
H         0.84238165383735    7.02116199170844   -1.18240669071313
H         1.68419149895579    6.32525161394487   -2.56849230292331
C        10.76291084904998    0.95541961575596    5.99384844681510
H        11.35752580504711    0.57316855840901    5.16008932897020
H        10.21828828525193    0.11086886869615    6.42211747730792
C         8.76029516634317    2.41435743384233    6.52835117818606
H         8.03416864837912    3.10611675466452    6.10733796800010
H         9.25714220322932    2.90907278745473    7.35838750295521
H         8.22438977268070    1.54767223628011    6.91015231927017
C        12.74456585267915    0.49503444020733    7.43166021144552
H        13.49686141288767    0.30411647476510    6.67646930850657
C         9.76467967273992    1.98777787117215    5.46062875233171
H        10.32110010989265    2.87154397880486    5.12794828973751
C        12.78549718290493   -0.19317571947984    8.56565228266683
C        11.79111599854660   -0.02328452375723    9.68114390781771
H        12.04358753725703    0.84949778600734   10.28422876646983
H        11.80169353032471   -0.89446583821409   10.33176652925112
H        10.78202425126704    0.10905989323230    9.29965500900024
C        13.86881217649547   -1.19480002296464    8.83764035422310
H        13.44005525778048   -2.18872573810242    8.96738613178385
H        14.39409108514573   -0.93817299738841    9.75746694786523
H        14.58796293551928   -1.23084450199689    8.02337753388391
C        11.72178781616944    1.52038729632554    7.04850390351396
H        12.23205359031932    2.39162977551991    6.62844838751546
H        11.16534968132429    1.84732918308436    7.92471275859890
C         0.94862098708209    4.84436604415418    0.47751909078466
H         1.50961874350142    4.18642867639646    1.13749880584108
H        -0.00928799801263    4.37630356640660    0.26782358254565
H         0.77028375580752    5.78172395692779    1.00048564094218
C        -1.92418716492691    6.23333566187853   -4.07570238908996
C        -0.89137385034444    6.51838600477896   -3.29189251938365
H        -0.43007470049463    7.49465559016333   -3.35055571747408
C        -2.60852542022141    4.89641627141957   -4.03051200425698
H        -1.92493939289601    4.10592690981942   -4.34112998959347
H        -3.47372187919691    4.88041923938715   -4.68768257276279
H        -2.93569106198770    4.66603049144836   -3.01729290009277
C        -2.47700772507501    7.21843503188320   -5.06065053579380
H        -1.91877279977668    8.15090609920623   -5.04026904547434
H        -3.52179636627398    7.43205862872676   -4.83473171965500
H        -2.43338750587664    6.80677355371828   -6.06902666813937

