31
CSD_code = ZOQHIW | q = 0 | S = 0 | Stoichiometry = C10H15F5W | MND = 10
W        10.90623971486766    3.36663809028125    3.36647481566133
F         9.17191674095595    4.17398599770832    3.35148633988021
F         9.91269592330641    2.07399331446627    4.31785731821258
F        10.98411967254122    4.35025186498958    4.97861915007606
F        11.28632684890845    4.98707183437268    2.47673788389674
F        10.21224718297421    2.67723388692172    1.75519120168425
C        12.29247866041865    1.36149737074251    3.55485167378563
C        12.69159751611065    2.34224759170692    4.51318719555066
C        13.21868481923449    3.46179685841179    3.79553673181994
C        13.14080237958133    3.16084141756169    2.40059410039909
C        12.58650063152816    1.86081946478222    2.25796916801377
C        11.78907006604505   -0.02937445799536    3.84745876539983
C        12.59764693140418    2.16527509564205    6.01298084468833
C        13.80357110273460    4.73389242470880    4.36954030685089
C        13.68218842265512    4.00355049230740    1.27210623329954
C        12.47509671254102    1.07422443946047    0.97955367958740
H        10.91850962488507   -0.25374354111701    3.22953204300405
H        11.49845631916271   -0.12065214044562    4.89074606467292
H        12.56339556924547   -0.76671733267223    3.63172612456343
H        12.99151405104880    3.03686705311652    6.52990611478265
H        13.16552466195588    1.29017257756522    6.32978346400068
H        11.55334385126902    2.03543447428783    6.31442894330096
H        13.75308499168838    4.72520680529260    5.45565217956315
H        13.24316452138236    5.60345526874002    4.01208672561077
H        14.84725225773369    4.84262294841279    4.07318360064877
H        13.95285976596617    4.99277546819952    1.63129850509483
H        12.92955703115245    4.12037772471242    0.49067410768912
H        14.56539527412290    3.53467627013122    0.83681119633761
H        12.51364544530188    1.73568818804381    0.11827537380958
H        11.53622648463333    0.52375761118727    0.94824788253956
H        13.29548682464483    0.35883293847754    0.90720226557550

