88
CSD_code = ZOQKIZ | q = 1 | S = 0 | Stoichiometry = C40H40N2O4PPd(1+) | MND = 4
Pd        9.86593572485764    4.61955786045032   11.05207032512366
P         8.61886781797920    4.13733827393953   12.83929078696671
C         9.59552778003432    2.68620084913843   10.64957730537510
C        10.51976975574144    1.86001950914900   11.29168516828557
C        10.48366169559069    0.47648631098777   11.11299377639842
C         9.48843264274836   -0.05324294111482   10.25791133158113
C         8.57674255239455    0.78297251214026    9.63387713048349
H         7.81652056220559    0.37778315473916    8.98699558986027
C         8.62613582320936    2.16097495719951    9.82612507449565
O        11.40009689948092    2.59715572333454   12.05913618670144
O        11.42972070558505   -0.30472443884961   11.72882046427300
O         9.50447585591617   -1.40671729882798   10.08572362831766
O         6.47715400208228    3.11111934218216   10.07019586913183
C        12.34122721167901    1.95380925113621   12.89795988597813
H        12.88757719233667    2.75612272157835   13.39491240205527
H        13.03390129443018    1.33982541123294   12.32044831099096
H        11.84687712819297    1.33375551126559   13.64852664437135
C        11.01894379187254   -1.51391036402654   12.34207882870730
H        11.78103156790504   -1.73215022807374   13.09063837902649
H        10.97034396129839   -2.33163488442962   11.62199646023398
H        10.04799912724139   -1.39895002509964   12.82984385261939
C         8.50251286191909   -2.00332774256678    9.29664909589116
H         8.69882833448214   -3.07339211451514    9.33900691612835
H         8.55698549381054   -1.66931261343716    8.25621024674442
H         7.50382285788283   -1.80215616667398    9.69570099305376
C         7.59924699305141    3.07226663745077    9.20365523501916
H         8.02073824677932    4.10042819156940    9.09410087726955
H         7.30992268034457    2.69983646880154    8.21290170926558
C         5.33212859415779    3.74098434057493    9.53176523004978
H         5.60946449521178    4.70861435899402    9.08886311211090
H         4.68897633107206    3.92618572419194   10.39638046013306
C         4.58290456279680    2.88973819650440    8.50943857851103
H         3.64804721024961    3.37815009594507    8.25071543792326
H         4.36377007872084    1.91255833104271    8.93203304691415
H         5.16130940561427    2.75653145217511    7.59842625661380
N        11.17389618050768    4.96588057140707    9.46982482853059
C        11.64938657939756    4.01289672710547    8.67533631833868
H        11.10113722751179    3.07758684523610    8.66145963008692
C        12.78017094462354    4.18638258082297    7.89303041844222
H        13.12654002936852    3.38602262098951    7.26008419351137
C        13.45298442978347    5.39635894713893    7.95558774426588
H        14.34850285492724    5.56326488591958    7.37761283594562
C        12.95496844626235    6.39252377346430    8.77694464408584
H        13.47280690402905    7.33426993935403    8.85360263759896
C        11.79924862655761    6.15472778523340    9.51996994889855
C        11.19781728671457    7.18104324751546   10.39309797400455
C        11.51517268137122    8.53509888500461   10.28392423163175
H        12.20855811842833    8.87888809696446    9.53444826093219
C        10.91259467033161    9.44479166290036   11.13455518531156
H        11.14721250327229   10.49542743424470   11.06353355922299
C        10.00149172372663    8.98134444502961   12.07104541351216
H         9.50992295353747    9.65347664375224   12.75488266335275
C         9.72375081467452    7.62513825330802   12.10756311781214
H         9.01035767000207    7.22772161232850   12.82073398511074
N        10.30109996310447    6.74823953604688   11.29456512076295
C         9.43604992289050    4.98614632204244   14.23242328669001
C         8.77004226406298    5.38811857412228   15.38470721423234
H         7.70933146054020    5.20961394972648   15.48605163104375
C         9.46904581977565    6.02399338674771   16.39650842531360
H         8.95162259558947    6.33652094798509   17.29078979423053
C        10.82848482192531    6.25823226692640   16.26555688859403
H        11.36830571065207    6.75258070449357   17.05860398471310
C        11.49642526939027    5.85886705026272   15.11792095098018
H        12.55642868634336    6.04200226325086   15.02026945451527
C        10.80342176696200    5.22776326794329   14.10096868305699
H        11.31632087591962    4.90549572490225   13.19127228823852
C         8.36198903395178    2.45352540896335   13.45592355647482
C         9.14292215675914    1.93676858103730   14.48467237431489
H         9.87445317624070    2.56371098427723   14.97546373984527
C         8.97716273319051    0.62112130392752   14.88028807263790
H         9.58210855814989    0.22016330539636   15.68023436999270
C         8.03847314952184   -0.18124284843137   14.25212882382308
H         7.91120385270052   -1.20709422025572   14.56512875805840
C         7.25833751386809    0.33437437906397   13.22811756494007
H         6.52457478435549   -0.29119778936583   12.74246983886724
C         7.41679827426191    1.64684270025768   12.82546404145478
H         6.82530358060354    2.05485601698964   12.01868993741520
C         6.96640142968290    4.87107457046097   12.72443828058596
C         6.76641495860848    5.81666371321212   11.72253907191712
H         7.57140371330961    6.01064518020607   11.00966981545252
C         5.55376776364971    6.47232630408347   11.61865699998257
H         5.39702819082687    7.20828233891390   10.84389780774727
C         4.53200120305788    6.17586285936835   12.50765666597650
H         3.58441848239598    6.68645132222176   12.42823095924443
C         4.71756820765140    5.21251087137184   13.48663403705092
H         3.91222951293247    4.97021899473773   14.16355129490838
C         5.93161499766994    4.55795478906392   13.59896663901893
H         6.07232368571755    3.79306591368791   14.35004744132608

