74
CSD_code = ZOQKOF | q = 1 | S = 0 | Stoichiometry = C24H39N2O8Pd(1+) | MND = 4
Pd        8.69420951256184    5.45662991919665    9.77907916900381
C         6.88183387122163    5.21125613791583    8.97670995580967
C         6.08474871051085    6.22848518356861    9.30837621797045
C         6.56242410957339    7.24030271049432   10.29247120453809
C         6.67196448552887    8.57370265493481    9.87588985999217
C         7.01266892840029    9.58754093253215   10.78647117794968
C         7.21328820299001    9.23891680516946   12.14041053968483
C         7.10343368777159    7.91117089760560   12.53467721834817
H         7.25894259396873    7.64783580182565   13.56842609451802
C         6.79719836145915    6.90451052382660   11.62821230101639
C         6.68118964653392    5.47300822550739   12.08445344456416
H         6.62650382267467    5.42637276939269   13.17848560053164
H         5.78292493542041    5.01283038075512   11.65398949882428
C         6.53789378997329    4.08028725147948    8.10511713532760
C         5.24282390974037    2.13576930284377    7.91417247613056
H         4.51418996070931    1.60091777435631    8.51722118956148
H         6.10134340326040    1.49905372536890    7.69162891548766
H         4.79637213125893    2.46712593047085    6.97568506688630
C         4.72296657394741    6.46886315314183    8.75392322567529
C         3.22324118105472    5.88189399581617    7.05204966007258
H         3.28353712929984    5.37733089272983    6.09132216284472
H         2.98760992824594    6.93904016653258    6.91800904387457
H         2.45368809949116    5.42497252120121    7.67731626173457
C         5.63083242300977    9.82281123795152    8.11639213329784
H         5.50491143439219    9.67359458583750    7.04538704110288
H         6.05608606570234   10.80876506795959    8.30395326897957
H         4.66488265363924    9.72837101491358    8.61718137839719
C         6.90435711970320   11.98576201906584   11.04690974397254
H         5.96515423302885   11.87933072988211   11.59179416287719
H         6.81725984917002   12.80007165446302   10.32819198043510
H         7.71157358100355   12.20233703741121   11.74718701631864
C         7.61657286989547    9.97594786691969   14.37932522420388
H         7.79795073743277   10.94097018568813   14.84908244661963
H         8.43939102317790    9.29776882478521   14.62555064786613
H         6.67395981533144    9.56497923161002   14.75045245533251
C         7.65832988901040    3.32891788364396   11.57201289945565
H         8.55452575472318    2.94923677274741   11.05727555330733
H         6.77142141105613    3.10326796796038   10.96344190425869
C         7.53208805607067    2.68370125106890   12.94705500181193
H         7.54210073970352    1.60326789833762   12.83917840815986
H         6.60157500303723    2.96819070407652   13.43051137975525
H         8.36400028822544    2.97529499352034   13.58418892895244
C        11.49721189435494    6.30334109415288    9.54665552078944
H        12.02504338907290    5.40566846968433    9.21382406178155
H        12.25559827082139    7.03779560306223    9.85193354574387
C        10.67133361953606    6.87482025272677    8.39218479121302
H        10.23660545986482    7.83637147395500    8.68728520261842
H        11.32751282564117    7.05076574400387    7.52793774300333
C        11.21998812647251    4.90151867237578   11.49778534364781
H        11.36999340684921    3.99759291827202   10.90305784065960
H        10.55190557280699    4.66594084195090   12.32673046556937
H        12.18708352036458    5.21707559365001   11.90846549867284
C        10.33928675786671    7.12865093355548   11.50050833158367
H         9.82311225942562    7.89477034388653   10.91434522679341
H        11.26574844768562    7.55470908646757   11.90759821402092
H         9.69221238499981    6.84195503416926   12.33065005944823
C         8.70135774862846    6.69520718269396    7.05541039887584
H         8.20549890464636    7.53741460469794    7.54191972880463
H         7.94102206126821    6.01732852005452    6.67049957781827
H         9.29753353115076    7.06402048328720    6.21381098472779
C        10.04969370602429    4.74823243090214    7.38001816809748
H        10.61505485915449    4.13947770316659    8.09104744739499
H        10.68906181831484    4.98109987984169    6.52107282417623
H         9.19263189252314    4.17021039944673    7.02610550876566
N        10.62092676129508    5.95125494038399   10.67446323242863
N         9.56125757926242    5.98327605368714    8.00917291258055
O         7.84485018563810    4.74738023071652   11.65073151629753
O         5.64906358250653    3.26138513433675    8.68559636576077
O         7.04688324023232    3.86229428960614    7.02602476844290
O         4.50177326682412    5.73608855974460    7.66008132843297
O         3.92754456225915    7.23635749307641    9.23316243119812
O         6.50652788152157    8.78353789552098    8.53459503700987
O         7.18238279262274   10.83300794641036   10.26892739320231
O         7.55762976744582   10.24004560605721   12.99562953502382

