34
CSD_code = ZOQQOL | q = 0 | S = 0 | Stoichiometry = C14H11NO7W | MND = 9
W        -2.87755945257120    0.84328555515896    5.05564383680550
O        -2.12562168986545    3.51973621624056    3.62806622462597
O         0.22532592765360    1.14251807536630    5.05245988961625
O        -3.32345047675757    0.47093290413712    1.99237999545377
O        -6.54654628608240   -0.75823908071424    4.43000896561218
O        -5.15938029351063   -2.32630205196790    5.29212185003917
O        -4.53565960814864   -2.76624239506987    2.64434375987944
O        -7.49647908744823   -3.78738974257519    5.93327946126469
N        -5.81682419475706   -3.22961466211004    4.47711086759075
C        -2.42341516933796    2.55309902173384    4.17496404696514
C        -0.91671961561894    1.03409864496975    5.04831470315908
C        -3.14968477447333    0.60185992083349    3.11340397377176
C        -5.60679279734059   -1.02297464913594    5.12993382055727
C        -4.78581687102572   -0.11207657385810    5.90675640296025
C        -4.96223652722682    1.30407385116121    5.95147353440074
C        -4.02305126449105    1.81749494363898    6.87374723737157
C        -3.26783604896587    0.73712653685236    7.39855884682903
C        -3.72593756752467   -0.45371631645651    6.80569771820904
C        -5.46916644238366   -3.32976536756598    3.13824068032739
C        -6.47431851920598   -4.26634401014230    2.51312793374511
C        -7.45786311130762   -4.62072546320406    3.62845321391249
C        -6.99693885304705   -3.85516205296604    4.84938248927646
C        -1.91274155053776   -1.14052735227341    4.42396439697891
H        -5.78010352377642    1.84212887418163    5.49054979228490
H        -3.97780917115813    2.84162187796873    7.22064017650902
H        -2.55717084775030    0.80431127711296    8.21222364835526
H        -3.45748076207708   -1.46036050526592    7.09621307580238
H        -6.95086530142790   -3.75501005683406    1.67613283529373
H        -5.95196511840001   -5.13482810696574    2.11083283169986
H        -7.46779462664486   -5.68556589205321    3.86384384815978
H        -8.48250662768828   -4.32724857179802    3.39922303942289
H        -1.39719115617541   -1.55731227364645    5.28951678494782
H        -1.21096534794682   -1.13090039294947    3.59328390503980
H        -2.73133324298102   -1.80498218182213    4.15000621311745

