78
CSD_code = ZOQQAX | q = 0 | S = 0 | Stoichiometry = C27H41FeO6PSi2 | MND = 8
Fe        0.89869715684209    4.83160659606263    3.65909285349397
P         1.28336224186057    2.75328207492831    2.97083507264337
Si        3.66437067618479    1.32034754740345    4.05406988592250
Si        3.56480300655801    2.38135690777914    0.98016811029086
O         3.68280877443458    5.40522484569454    4.20291768914318
O         1.16014903528952    5.76768347818589    0.93795215089789
O         0.24097108500882    2.70528778654379    1.63778488380155
O        -1.34097497737622    1.34003816058398    0.67170401551664
O        -2.63918719668118   -2.54236170113265    5.54011892160047
O        -3.21556306944218   -2.28058961727684    3.38359573585828
C         2.58360423621264    5.16956019008098    3.98507392810635
C         1.07302329554914    5.38759552533852    2.01495964261950
C        -0.58893318841937    3.86226211563936    4.90973061763896
C        -1.24384647884047    4.61925920335919    3.88435628268748
C        -0.97074516163242    6.00659669502219    4.11640371378091
C        -0.10145117041636    6.10383693190939    5.22570694901221
C         0.14998290905798    4.77617808640819    5.71495253803606
C        -0.64665924234613    2.37512316221836    5.06867844670972
C        -2.32839386424556    4.13472495562567    2.97160516440439
C        -1.60790384932679    7.14022816350942    3.38095207921324
C         0.34730853321113    7.36159517509337    5.89636973529479
C         0.80437251510752    4.50657089911438    7.03479471808194
C         0.17803367385979    1.62776645805653    3.98866923626904
C        -0.68056673597067    0.99890647894026    2.92007469784435
C        -0.59417929811068    1.65046031259231    1.73021490166423
C        -1.22779398270187    2.15476502853428   -0.48302076130363
C        -1.52590983110793   -0.12452846200127    3.13927295530920
C        -1.64800787550748   -0.79263650461239    4.30385436691160
C        -2.52239641451533   -1.93957572856789    4.49515029140781
C        -4.07313949339700   -3.39862682448736    3.52170678828302
C         2.65851426481039    1.83233846988453    2.53942358698535
C         2.97690276955298    2.07614005794598    5.67466853536617
C         5.49822945302337    1.84170114585799    4.02412402271779
C         3.59017881535012   -0.58645560614427    4.20506108200638
C         2.43281028101201    2.54620788578987   -0.55054535724942
C         4.45080161218768    4.06914674672150    1.15140713197130
C         4.85237723301647    1.04143476638142    0.52628946825748
H        -1.68669437078642    2.04355888859643    5.01046551724280
H        -0.27032679209011    2.10798941110834    6.05694981915702
H        -2.16015034669278    4.46828831993441    1.94919046347546
H        -3.28722339797216    4.53971887919747    3.30067787079552
H        -2.39495793691638    3.05023841076454    2.97380409982088
H        -2.55312619230591    7.40395346994539    3.85901486034781
H        -1.81527910105734    6.86627875446704    2.34984417993525
H        -0.96905537614830    8.01969198408509    3.38369471659988
H         1.32037961892333    7.22766729911974    6.36114909712625
H        -0.36511692015367    7.64039426001719    6.67476131314176
H         0.41336998030143    8.18186794160644    5.18659094869808
H         0.17760355865202    4.90556293774225    7.83423309610011
H         1.77688786408094    4.98988998230948    7.09881528439108
H         0.94262272203734    3.44398927793080    7.20703363876328
H         0.81242445685837    0.86728108935442    4.44931512692849
H        -1.99841240166775    1.80131110410931   -1.16487695853618
H        -0.24368542739160    2.04923247265700   -0.94116746898607
H        -1.39604478913958    3.20605593925450   -0.23914535668836
H        -2.10385783941086   -0.44944897291738    2.28558680287311
H        -1.08686623188509   -0.51615085217100    5.18347299680560
H        -4.54735102403434   -3.54084723707714    2.55369749514651
H        -4.82421024430384   -3.21172284170774    4.29302982124698
H        -3.50140152464863   -4.28627850013522    3.80230328752367
H         3.77453472740262    2.33629587474764    6.36300629071583
H         2.30931355239571    1.39898977471491    6.19765839968994
H         2.42984926788436    2.98587467447827    5.44135829286377
H         6.02888315157295    1.41276466767161    4.86829297250640
H         5.60568162128575    2.91971112080501    4.08128608533335
H         5.99110437272383    1.50536819814247    3.12129872661985
H         4.02785752099594   -0.92481668591251    5.13885109804313
H         4.14232807010154   -1.05451025657534    3.39737830461546
H         2.57228705239185   -0.96149492739884    4.15928296410467
H         1.90330164961919    1.61785925440331   -0.73971495422374
H         3.01707207270592    2.77550231689673   -1.43670624322196
H         1.70681050184983    3.34048825919340   -0.41950511845617
H         3.73854450557375    4.85903260535014    1.37351149407334
H         4.97214548451435    4.33852631818390    0.23799951350931
H         5.17969850098153    4.05274364810014    1.95377565543349
H         4.87783819992818    0.87015250469011   -0.54431867563248
H         4.62952383328936    0.09544815380498    1.00604409891775
H         5.85054789243636    1.33659107352363    0.82758636201088

