41
CSD_code = ZOQZUA | q = 0 | S = 0 | Stoichiometry = C19H15I3N2OW | MND = 6
W        -0.35837150274630    1.59450746900823    3.98632080046473
I        -2.43307320459432    3.22952053697600    4.56715930434540
I        -1.33012026011765    1.01632844331082    1.47989722430666
I         1.08782465666665    2.41394356615851    6.18196668241486
N        -0.97674377372969    0.11670049322631    4.76529499757585
N         1.50937413946673    1.12525058890064    3.18926806036364
O         0.60390843903873    3.09898647280998    3.05801035513489
C        -1.44676377946459   -0.96536885454396    5.42626176970520
C        -0.60134086202167   -2.04356893855956    5.74052262397387
C        -1.09654693199165   -3.13353259463310    6.42313662330978
C        -2.42881654160660   -3.17976665488939    6.80404405012914
C        -3.27146804479550   -2.12069686773685    6.50004701789763
C        -2.79591014248628   -1.02163977955510    5.81945421198876
C         1.60866327780709    2.36601837009963    2.73786415130140
C         2.68541156739431    2.91236131491533    1.90283391543574
C         3.30144379839112    2.13483617483006    0.92247963334670
C         4.28019502037753    2.69785761611387    0.12746869922889
C         4.65143603348743    4.02196529517659    0.30792184294135
C         4.03007626437071    4.79733611768919    1.27418639145265
C         3.03889240481528    4.25110692025101    2.06620100645968
C         2.50353655713957    0.12525569933087    3.17539879194204
C         3.83708945580154    0.39253958045874    3.47618406962324
C         4.74073492576257   -0.65225297721770    3.52610872328553
C         4.32736621061542   -1.95227347293415    3.28466740449681
C         2.99642653311062   -2.21782163388826    3.00454347964315
C         2.07935099736665   -1.18547370629185    2.95643933202880
H         0.44016796543834   -1.99074297416732    5.44441079056820
H        -0.43726068255915   -3.95533313235251    6.66251052523558
H        -2.80850772706692   -4.03731626457765    7.33799165162665
H        -4.30913936773315   -2.15334180423078    6.79730987612026
H        -3.44124593284020   -0.18603374368662    5.57494871899193
H         2.99636283675193    1.10991029066485    0.76824477808802
H         4.75162616106185    2.10159300437125   -0.63824148590080
H         5.42194633680065    4.45250231343399   -0.31322964808273
H         4.31289730726779    5.82988483067737    1.40816114400931
H         2.54353087148801    4.84338332761508    2.82196783057415
H         4.15196910307664    1.40442544657425    3.68858875295491
H         5.77247015115694   -0.44604292144841    3.76502359041434
H         5.04043845455115   -2.76067860469273    3.32712995138559
H         2.66780175257631   -3.23055729640149    2.82935407802404
H         1.03096753197251   -1.37707165079357    2.74934828320005

