141
CSD_code = ZORCOA | q = 0 | S = 0 | Stoichiometry = C57H71IrN2O6P2S2 | MND = 6
Ir        0.63212700294963   -0.30461205111552    3.20012854284089
H         1.05933103349620   -1.43884535967845    4.10208207030775
S         1.29670730535021   -2.37338232008280    0.91477047087191
S         2.35663086585889    1.17842622422040    5.26256928678571
P        -0.95400981730682   -1.70517517441911    2.31585028179544
P        -0.27567137988059    0.64429082034504    5.08887756865373
O        -2.56206313246974    0.24511976301202    3.50288538828084
O         1.61740468760215   -0.98307658289575    1.31117381722449
O         1.65738129543724   -2.63603181143135   -0.45112469840344
O         2.32253686518989    1.08233594249765    3.78719564784249
O         2.95162352281425    0.01325903244280    5.85972680438695
O         0.29364222160454    1.40084899580175    1.70881244127365
H         0.65819952318554    0.87850615101268    0.97984109525150
H         1.03231636587911    1.93617950724361    2.02694193478027
N        -0.28123990503348   -2.60296937732131    1.15222739328139
N         0.88847419587331    1.49771487027408    5.83143851129467
C        -2.33598440146379   -0.86667756997546    1.47868913516770
C        -2.99818098439412    0.10470526952685    2.21813151433571
C        -3.99491081366684    0.91008107221181    1.67898843606611
C        -4.32581427880618    0.69549044552612    0.34640465293427
H        -5.09111992189617    1.29227628626199   -0.12369453951388
C        -3.68351789932936   -0.27923668053776   -0.40315497111251
H        -3.96485514140304   -0.42112118001779   -1.43589755365070
C        -2.68366585453831   -1.06016809227036    0.15265263224515
H        -2.15095700710855   -1.80763178756999   -0.41509076100617
C        -1.58893022436394    1.87835773982785    4.83805041520615
C        -2.61256177540024    1.52606614944969    3.96864640855568
C        -3.58803422548863    2.42733074404468    3.55365380083536
C        -3.51854694911471    3.71512174545646    4.06981900502405
H        -4.24717572292990    4.45475604584467    3.77858605420192
C        -2.51849134077297    4.07608036266124    4.96077579401540
H        -2.49464556280511    5.08413086797204    5.34745829327630
C        -1.54740439341651    3.16664816834926    5.34320812383106
H        -0.74185733804661    3.42919951885611    6.01100052533600
C        -4.66224839613826    1.91160513804643    2.60870911191884
C        -5.70179813164796    1.14663763031555    3.45275772744357
H        -5.22960603912978    0.33343133486610    3.99985047457719
H        -6.47094915074318    0.72731112744832    2.80746937249953
H        -6.16991319452173    1.81927827650145    4.16857964351123
C        -5.36276457447666    3.03726044979471    1.84964267239188
H        -5.84932093099160    3.71581172496970    2.54512393286327
H        -6.13430880259338    2.63111159206717    1.20122566447250
H        -4.65145069770616    3.59665705351286    1.24664980111097
C         2.11377119856269   -3.54525826888722    2.00814260531713
C         3.14356959538370   -3.18168065292576    2.88057574720268
C         3.48082991297354   -4.08005010208363    3.88704506525535
H         4.23954648633398   -3.81164986489408    4.60320160882642
C         2.86597736421886   -5.31697558180873    4.00833003792217
C         1.95021797631879   -5.69637523172335    3.04058729806587
H         1.52064465561994   -6.68503004424119    3.07144682417488
C         1.56514412886654   -4.82646579946105    2.02952383647946
C         3.95200207731215   -1.92574728609971    2.65879857788644
H         3.27679721746807   -1.07292315349101    2.60508066301050
C         4.95911693170045   -1.61161522887276    3.76202151174300
H         4.44490488565737   -1.46172615490838    4.70860800133614
H         5.47240070816993   -0.68366262754093    3.51459045429418
H         5.71037364160241   -2.39343847543173    3.86092562821154
C         4.66127459777876   -2.06239789006235    1.30457356270900
H         5.32618209756377   -2.92564311983511    1.31311665513006
H         5.25269188214211   -1.17248101598599    1.09827207529437
H         3.93607765062253   -2.19036888059760    0.50388800234901
C         3.22013360493482   -6.24007810665759    5.14889191704007
H         3.98640373034782   -5.75129524720840    5.76006106819379
C         3.79453657739379   -7.56166934213141    4.63455988260924
H         4.11379576114069   -8.18338111742301    5.46840877168579
H         4.65243910372075   -7.37607360107620    3.99241144359530
H         3.05218635248725   -8.11249217997280    4.06306831935311
C         1.99189441345267   -6.48319107711315    6.02862952204844
H         1.20223816461969   -6.96795865141640    5.45961325193304
H         1.61266123540744   -5.53699260953841    6.40837611630950
H         2.25077465246396   -7.11996130628293    6.87223686462877
C         0.65770514795648   -5.33453725509561    0.93418717523291
H         0.47543581974843   -4.52590054863278    0.22781064789767
C         1.37206771882916   -6.46155177028225    0.17938128866375
H         2.32301102851507   -6.10545511434441   -0.20904437446018
H         0.76068637887594   -6.79071545304768   -0.65740221484639
H         1.55890889993950   -7.31535045520137    0.82676008525293
C        -0.69298825159151   -5.80430867810972    1.47374801952903
H        -0.57529037930972   -6.58081746187551    2.22590025828922
H        -1.29544789374444   -6.20176716499189    0.66027655063695
H        -1.22146766767063   -4.96469196257390    1.91698007592779
C        -1.77357760403885   -2.83066643198780    3.50254500656322
C        -0.96754626560714   -3.60013823395493    4.33474454235098
H         0.10586441234834   -3.50080169482074    4.26052492249122
C        -1.53218312268061   -4.47652835614687    5.24071099212655
H        -0.90002479180323   -5.07150883011114    5.88234244098921
C        -2.91074203931007   -4.58777219418153    5.33065575754320
H        -3.35412696104716   -5.26725339512860    6.04362208734381
C        -3.71803456805646   -3.82889983257202    4.50221730919270
H        -4.79309113747948   -3.91859532949924    4.56525510004650
C        -3.15297341828481   -2.95533391742010    3.58813500558702
H        -3.78773639143307   -2.37446970851349    2.93508035499211
C         3.29256297507068    2.67273500002094    5.66059246965484
C         3.07598661322865    3.80906758983757    4.87846419892766
C         3.89109291169338    4.91904026423862    5.06721106315253
H         3.74764846436305    5.79081620735122    4.44696801323509
C         4.88647827606612    4.94123180635966    6.02891562662048
C         5.00876283161368    3.83958068997238    6.85949010647410
H         5.74237103912601    3.85678272124270    7.64878433888630
C         4.21471662512756    2.70864885247514    6.71029030469680
C         1.97699990467106    3.90397905141059    3.84503409350452
H         1.29248978744970    3.06859609500649    4.00041257524939
C         2.57852903432536    3.82683268641611    2.43764389893834
H         3.32356494956681    4.60866123517437    2.30049312386239
H         1.80499542209167    3.96248501851028    1.68240780080394
H         3.06927236055566    2.86579328442640    2.29567466038847
C         1.15795271366719    5.18787677529815    4.01044838565864
H         1.71133602398675    6.06306283189215    3.67887279769606
H         0.87889141474890    5.32665192371678    5.05157031012502
H         0.24748744819219    5.11814779752958    3.41888150948722
C         5.77350914023533    6.15102705525959    6.19038935682636
H         5.52602313454841    6.86411569115662    5.39611933092717
C         5.51227043843684    6.82943916684015    7.53712127033986
H         4.46299828136738    7.10155659963983    7.62607696436652
H         6.11386798629833    7.73122485550237    7.62730023701900
H         5.76391702294145    6.16403781444349    8.35880660188711
C         7.24911739223225    5.77403272244005    6.04851502624102
H         7.55764552371360    5.10575280399277    6.84802403740321
H         7.86993948274335    6.66632037985326    6.09010791908165
H         7.42269582480043    5.27490564918218    5.09793009781239
C         4.37753571136645    1.58853334048037    7.71002313003068
H         3.51627610153053    0.92745129243073    7.62824229236188
C         4.42963521639767    2.11526749018531    9.14742187673023
H         4.32123126583412    1.28426553254349    9.84022360699490
H         3.61929473397844    2.81844284694023    9.32521240574808
H         5.37403772034585    2.60826211745982    9.36571220828359
C         5.63317942954536    0.77756325932113    7.37936279285460
H         6.51299132917938    1.41804607124422    7.35025604288519
H         5.50951428914426    0.29897861702707    6.41216837097434
H         5.78648172773365    0.00556607992842    8.12940908461743
C        -0.96123828319301   -0.55789702390215    6.28110999856439
C        -2.31778871616871   -0.75063954706920    6.49800190349829
H        -3.04041899292761   -0.14099382124675    5.97842715642160
C        -2.74500043264960   -1.72296622794483    7.38566833653884
H        -3.80221356046012   -1.87329354821471    7.55040582176591
C        -1.82252023547786   -2.50245514219618    8.06151182539701
H        -2.16080107698292   -3.26112633037198    8.75216928747888
C        -0.46591044062822   -2.30544459447151    7.85510908890288
H         0.25364272686337   -2.90905004514885    8.38893166461992
C        -0.03587593449222   -1.33955250833718    6.96530586716138
H         1.01701198177738   -1.16901608547306    6.78503285178793

