57
CSD_code = ZORGUL | q = 0 | S = 0 | Stoichiometry = C18H18B2FeN14O4 | MND = 6
Fe       -0.23539035079073    9.07583674971657    3.74739261704943
O        -3.87115030969122   12.18386727249435    0.53285859388570
O        -2.41688039853963   13.66253441372232   -0.06366819526139
N         0.71983498318575   10.36064097270782    4.83242942095937
N         1.36461046386642    8.85601719152439    2.68454411921387
N         0.14227453861129   11.43334265789172    2.21324975452319
N        -2.75012493479236   12.65590074054812    0.53278405441999
N        -0.75228080724191   10.50936947687588    2.58998562590818
N         1.48095457988181   11.28964874477193    4.25301373815971
N         2.06617959505613    9.92463699520269    2.30529349120608
C        -0.42370845089617   12.33910611992289    1.42393516068270
H         0.10819927470261   13.16934731656659    1.00684938374086
C         2.04176186167024   12.07007852910728    5.18865013124172
H         2.69211699784038   12.87907558003720    4.92553967378151
C         3.13099674189072    9.54061525674799    1.58566364029940
H         3.82380981738505   10.25367385257389    1.18797665419125
C         0.78981328901103   10.54257094167424    6.14212496050400
H         0.25015585235698    9.90950968905408    6.81683148667969
C        -1.76257524285054   11.98429425668339    1.27880215109780
C        -1.91212020269647   10.81257956940488    2.04218331743310
H        -2.79193413642094   10.22276831442363    2.19211230707420
C         3.11375011967278    8.16494207227693    1.49627299352451
H         3.81581818077960    7.53156224837684    0.99543477087978
C         1.62335849596234   11.62469360786635    6.42454468370603
H         1.88102716313690   12.01917067055162    7.38522581727158
C         1.97694839806678    7.78282823278861    2.20843097340846
H         1.58723944700215    6.80089319907445    2.38508722717876
B         1.59162047201020   11.31127419320945    2.73079343829354
H         2.28052925445837   12.17907693680124    2.32958504913011
O         3.40109845815805    5.96703914976229    6.96024750222280
O         1.94706896296043    4.48814116635076    7.55670576687145
N        -1.19062229308880    7.79096102689237    2.66241863525217
N        -1.83530439897810    9.29560003907032    4.81036719018521
N        -0.61283109863925    6.71819809412723    5.28142574029829
N         2.28008131006124    5.49503560706113    6.96057231927586
N         0.28160882547419    7.64230974926467    4.90474090790735
N        -1.95179370718797    6.86203097496355    3.24189251190169
N        -2.53671137578524    8.22694509099323    5.18981933607362
C        -0.04661380920971    5.81216114089679    6.07027234967036
H        -0.57838834156163    4.98176571923909    6.48722102107546
C        -2.51278573642964    6.08168609908821    2.30629719709400
H        -3.16322098955754    5.27276980065731    2.56945838024924
C        -3.60137027978888    8.61091600024755    5.90970934359710
H        -4.29404919136788    7.89782509972437    6.30757178439735
C        -1.26077081302390    7.60907807838153    1.35272623621924
H        -0.72115331762148    8.24212880772047    0.67797638782659
C         1.29229654216006    6.16692068500576    6.21512486037709
C         1.44161535914156    7.33890587073143    5.45210385396189
H         2.32139209226524    7.92875513299357    5.30212639404500
C        -3.58425871659567    9.98659950467092    5.99894392634598
H        -4.28629547020744   10.61995122325599    6.49985284713101
C        -2.09454854367609    6.52711875632783    1.07036245569676
H        -2.35245259143529    6.13276392444182    0.10969358956914
C        -2.44760505342386   10.36876299095151    5.28657664276497
H        -2.05805001310671   11.35072271517989    5.10971747808073
B        -2.06225780817574    6.84033268280269    4.76413503409725
H        -2.75111269398845    5.97251906660066    5.16541326762911

