71
CSD_code = ZORGUK | q = 0 | S = 0 | Stoichiometry = C31H30ClN4O3PRu | MND = 6
C         0.09443128687196    2.20251782206081    1.16756993935704
H         0.64969308011933    2.50060661065289    0.27724736285921
C         0.14867337860677    0.57942313783655    1.29034950725353
C        -2.38238825694807    2.36898696952792    4.93817786438666
C         0.65423667448196    3.26217139031994    5.87750643542242
H        -0.20754096188512    3.90252901571563    6.06537485412561
H         1.51095242781540    3.65335542257464    6.41873891540485
H         0.41651977966503    2.26287133562162    6.24242160744064
C         0.95101328834235    3.21392522735349    4.42506828840014
C         2.04302601486430    3.77062889670215    3.74463831748684
H         2.86335946512498    4.30388332284413    4.17867394814014
C         1.85740830094651    3.48365580126953    2.40887003099367
C         2.70058902912128    3.79965089115905    1.22906571751150
H         3.01749716628728    2.88680866535513    0.72471730113938
H         3.58471609111135    4.33936453513838    1.55581607938796
H         2.16125768929568    4.42134171480702    0.51331350996688
C        -4.58944864185981    2.75724965669358    2.38279324585649
H        -5.35758675905582    2.16507085176380    1.88883432908044
H        -4.97187753797963    3.76692328404206    2.52417630492099
H        -4.36382158807701    2.31966498941013    3.35357769669501
C        -3.35308892482313    2.79302433674228    1.56416475573669
C        -3.19985398794595    3.32035020137441    0.27553415346686
H        -3.96744012996735    3.74566170924247   -0.33704293356284
C        -1.86660148814328    3.17876258319574   -0.04361572509909
C        -1.13105115071261    3.54501719530047   -1.27925419642888
H        -0.35320499207168    4.28037783352140   -1.07118636935597
H        -1.82638578856485    3.97354780413052   -1.99524790287479
H        -0.66622349778478    2.66729983378373   -1.72805983849326
C        -4.25523862142070   -0.51838167224169    2.63230116447903
C        -3.77598155519956   -0.42358666879043    1.32757059891075
H        -2.70762260157819   -0.33746676922069    1.16664175660173
C        -4.64470775695974   -0.45910236688617    0.25483318581638
H        -4.26496599426527   -0.38393711002755   -0.75376851854521
C        -6.00670826540848   -0.59367997513500    0.47728527178074
H        -6.69138717560994   -0.61662757039209   -0.35781851240403
C        -6.48782636532566   -0.70979505793061    1.77047669474073
H        -7.54771826756892   -0.83044362979409    1.94280062021309
C        -5.61803198965594   -0.67527059367423    2.84789457332000
H        -6.00273917854065   -0.77288421511516    3.85310313705792
C        -3.82792351339162   -0.49421066070100    5.51058434586467
C        -4.83008144097222    0.43390195349538    5.78239650411577
H        -5.12552112963907    1.14632916423721    5.02371115457644
C        -5.44551488775623    0.45354959057639    7.01994896877174
H        -6.22425485692960    1.17487242155763    7.22084154929659
C        -5.05520284299130   -0.44098927914012    8.00315662712434
H        -5.53226875410500   -0.42009861441416    8.97195051418706
C        -4.04336281510362   -1.35063075323693    7.74618273894161
H        -3.72476889799945   -2.03716907445824    8.51659791607729
C        -3.42895218022230   -1.37890234064150    6.50734420625242
H        -2.62458565434855   -2.07391748966702    6.31563265669276
C        -2.37088873990332   -2.16922526029896    3.74716557216259
C        -1.04094634569310   -2.51694739466937    3.55831594849162
H        -0.28025386060041   -1.75323051611208    3.51678682185144
C        -0.68884121291257   -3.85025879311655    3.42617206620521
H         0.34775678447958   -4.11417009233508    3.27787737396524
C        -1.65482388888546   -4.83859500640974    3.48405178183500
H        -1.37593744970273   -5.87737977888448    3.38217838470979
C        -2.98499550004879   -4.49477723907125    3.67371403949688
H        -3.74284577813283   -5.26364524742442    3.72079499276894
C        -3.34415600688974   -3.16797396905738    3.80121932338819
H        -4.38191712460707   -2.89954647728967    3.94954463063466
Cl       -0.56533281972308    0.07447606643603    5.46856886975683
N         0.15208371605976    2.62358285502863    3.54547782853468
N         0.69304726233473    2.79828618711569    2.32814854472843
N        -2.17967556405158    2.34465803468680    1.99606792014750
N        -1.27997729559747    2.59858656493908    1.02910809776696
O        -0.42292869205406    0.13595371388839    2.29827899746315
O         0.71437853950620    0.00940555842910    0.38416767173419
O        -2.91954737635216    2.99500728294551    5.73959578612902
P        -2.95552569231066   -0.44789001480641    3.91646701177691
Ru       -1.49316817685583    1.34535319945730    3.70920798336050

