57
CSD_code = ZORHUM | q = 0 | S = 0 | Stoichiometry = C18H18B2FeN14O4 | MND = 6
Fe        0.25280025243344    4.79234317411102    1.47939125662946
N         1.05318623542903    2.66220627853218   -0.20897062738920
N        -0.99011509682211    4.69133624086126    0.03456473654346
N         0.83172880478215    3.02119948412256    1.06472392336670
O         1.83049644835856   -0.62825143444706    2.63050922094640
N         1.50401400131783    4.90581707105385    2.95096159263238
N         1.57405324092219    5.47065413367891    0.24282615732942
N         1.72213158401982    4.89600125726463   -0.95290082453026
N        -1.06750727045106    4.12173848551614    2.72446580944642
O         2.18573699758296   -1.18490845288113    0.57615912804942
N         1.86096068720188   -0.39096207852937    1.43851283763397
N        -1.21705869000639    4.69497327378198    3.91735166942125
N        -0.32746518705225    6.58583944942534    1.91459794048241
N        -0.61224704202342    4.18606074025939   -1.14953457538717
C         1.49178775601891    0.90421775132333    1.02444150257299
N         1.11553630119555    5.40313478735885    4.12388441404729
C         2.77944483600784    4.56301331983809    3.06026876506793
H         3.31091604546238    4.13935103097610    2.23203485243712
C         1.08696936409269    1.98183578245242    1.83359885544939
H         0.98339491092563    2.01416470583993    2.89771468540260
N        -0.54718375970801    6.92985379102199    3.18239048948307
C         3.23443481847877    4.84702967443274    4.34671420049606
H         4.21396102286382    4.68487496315430    4.74596940966034
C         1.45236003950782    1.39553216323350   -0.27669265054525
H         1.68572900334979    0.90135940345883   -1.19734395322223
C         2.13697093790719    5.38167386628305    4.98990861763885
H         2.02746760675849    5.74018630390216    5.99308653612583
C        -2.25638298049899    5.04475108880618   -0.05605506537296
H        -2.79336006566016    5.47614551556883    0.76228149221000
C         3.17962641476283    6.54366429336844   -0.86129158184316
H         3.95472640235306    7.24018396019882   -1.10425126454651
O        -4.20890784910694    4.65482127398329   -3.03143762006602
O        -4.83489459246270    5.47607940042463   -1.13622082508661
C        -2.71843426890067    4.75717588721252   -1.35361768113468
N        -4.00816491564585    4.97835238660580   -1.87605750717588
C         2.44175244960601    6.46599783826785    0.32113427770701
H         2.50252955667521    7.07452223617377    1.20014438831378
C        -0.58283812698382    7.64412638847254    1.15898393464117
H        -0.47004694584859    7.60329538423980    0.09432353881760
C         2.68726759090157    5.52303346883151   -1.64501583054708
H         2.95925961510039    5.21166475867392   -2.63285003198241
B         0.84046789609998    3.70922985048245   -1.31523476429831
H         1.05381767112577    3.27886223296905   -2.39031183980863
C        -2.18181785331372    4.07146388232730    4.60638778214612
H        -2.45495607565226    4.38353123725892    5.59366875575128
C        -1.93826840767149    3.12565500817680    2.64405269941941
H        -2.00207225372435    2.51512803662756    1.76580519628075
C        -1.62337039479564    4.20770756503178   -2.01296932917644
H        -1.54412344333568    3.85202714235564   -3.01967568632285
C        -2.67744576405841    3.04961058780854    3.82310507743285
H        -3.45415903466092    2.35470390015564    4.06529042851165
C        -0.94436687525802    8.20728155821800    3.24671294958834
H        -1.17263340612519    8.67571279161770    4.18231282972603
C        -0.98151444158642    8.71085305138200    1.96256564152824
H        -1.25656544274378    9.69747551530983    1.65282574548223
B        -0.32907464139658    5.88692443161131    4.28290465479325
H        -0.55195366574939    6.30924416181367    5.36125566522340

