87
CSD_code = ZORHOG | q = 0 | S = 0 | Stoichiometry = C34H34B2FeN14S2 | MND = 6
Fe        0.00036860934171   -0.00016004245618    0.00029445197109
S        -7.76907670475692   -7.16169304702982    5.60196247228125
N        -0.19724351133153   -0.42046126385948   -1.87773074800881
N         1.66546728451744   -0.98336327036702   -0.00992574914848
N        -0.90882974855068   -1.64688830724768    0.41457088392761
N        -0.59979068767051   -2.77122933590746   -0.23985736655177
N         1.74023657726290   -2.16503928904325   -0.62114887887947
N        -3.11346589772160   -4.06367488235282    1.86115451652091
N         0.05186184944696   -1.65352139727063   -2.31667576591138
C        -8.31766589745332   -6.28981903297090    7.09764816296511
H        -8.81598820830720   -5.36301572310416    6.82813975907979
H        -7.47064086399800   -6.10867408933236    7.75300968149949
H        -9.02206221058816   -6.95878742596211    7.58245152723311
C        -1.35591192661254   -3.78189301787779    0.19749952912924
H        -1.26606003874823   -4.77414736739698   -0.19339070342436
C        -4.70225379544406   -4.48254047505770    3.56773873797824
C         2.97955989502320   -2.66377885139279   -0.50320339343782
H         3.24347511180113   -3.61057840670939   -0.92908016763780
C        -1.85638294172214   -1.92861645387022    1.28977525013211
H        -2.26595567361535   -1.16051694399174    1.91420196774508
C        -5.33177188101676   -4.03883132286298    4.73067019920816
H        -5.08317181875064   -3.06715618294015    5.13456776266659
C        -2.19291992590086   -3.29817069326199    1.20055131977727
C        -5.04251649389988   -5.74378476307009    3.06369121212717
H        -4.55411480107340   -6.08268011595892    2.16418924868688
C        -3.72018036481532   -3.65499756622648    2.90488033896676
H        -3.53093631157020   -2.67530655732463    3.36366022860892
C        -5.97373141952545   -6.52455288316928    3.70384184925510
H        -6.23898323334055   -7.49788573109385    3.31905081399096
C         3.73696848172607   -1.76297093942340    0.21552423349743
H         4.76809150417516   -1.84586986610805    0.49149146814806
C        -0.55267114357142    0.31417991372851   -2.92060188011290
H        -0.80243605380968    1.34966532792431   -2.80568157813136
C        -0.53414416873260   -0.46711545454110   -4.07648218622314
H        -0.77137782125691   -0.16491108453295   -5.07584870342604
C        -0.14265751326155   -1.71601838889945   -3.64200863692851
H         0.00562219678818   -2.62679941337845   -4.18600986682189
C        -6.59458720323190   -6.07031031592006    4.86979008716793
C         2.85738009619354   -0.71858429300785    0.50260808181898
H         3.03502721355904    0.18853536394579    1.04422455960308
C        -6.26790486123424   -4.81963001856250    5.37889793887019
H        -6.73445740177028   -4.44420484047177    6.27585374180719
B         0.49317678141206   -2.72152000113302   -1.31290127502154
H         0.68205935998291   -3.77186412665654   -1.81774022597709
S         7.76751353002538    7.16245147756803   -5.60328577012042
N         0.19798628816205    0.42012818523475    1.87831059205992
N        -1.66474244912821    0.98304335977384    0.01051538402367
N         0.90953316730585    1.64658961075724   -0.41399907457302
N         0.60045087213301    2.77092663479074    0.24041641139751
N        -1.73953277182502    2.16469118381536    0.62179054405586
N         3.11363373053340    4.06358809329983   -1.86104598208962
N        -0.05110014540770    1.65318752565168    2.31726617595679
C         8.31554639243621    6.29080731772936   -7.09930952426231
H         8.81427716932290    5.36412943231181   -6.83012251646886
H         7.46821785637844    6.10945664226565   -7.75421973047136
H         9.01948573888294    6.96000046045280   -7.58446044149018
C         1.35638947678355    3.78165911005581   -0.19709569319154
H         1.26646961411350    4.77392364658724    0.19375283444669
C         4.70189526164547    4.48269211332600   -3.56805360875031
C        -2.97886482487422    2.66341354144977    0.50386958036576
H        -3.24279560740805    3.61018994899069    0.92978815341880
C         1.85694016240396    1.92838551110396   -1.28934057043486
H         2.26653352919701    1.16030066934992   -1.91377197992166
C         5.33111113780865    4.03911571725847   -4.73119968305261
H         5.08256551566933    3.06739702541096   -5.13502812087452
C         2.19331946825183    3.29798574451753   -1.20023587075624
C         5.04209519319885    5.74399039964816   -3.06409782902173
H         4.55395144566175    6.08276870923349   -2.16441471403828
C         3.72016158185777    3.65497670013192   -2.90490687132469
H         3.53093355631776    2.67526272770577   -3.36363599484953
C         5.97294920839731    6.52494042058714   -3.70454775268875
H         6.23816339103016    7.49829886119437   -3.31981666356062
C        -3.73625941948315    1.76262196174378   -0.21489375178662
H        -4.76738508462923    1.84551295882223   -0.49085362846009
C         0.55342289595196   -0.31452320687595    2.92117104950087
H         0.80317460551817   -1.35001042877497    2.80623958782101
C         0.53492183335911    0.46676554915049    4.07705637372226
H         0.77216789194748    0.16455275285902    5.07641731803166
C         0.14343996100271    1.71567463020763    3.64259676001771
H        -0.00482231282739    2.62645373081262    4.18660585176418
C         6.59350111280737    6.07082897773341   -4.87071238713174
C        -2.85665212240715    0.71826515884558   -0.50202734771214
H        -3.03428552226343   -0.18883254241758   -1.04368520309865
C         6.26688354629929    4.82009564764034   -5.37972613381707
H         6.73320521312505    4.44476911229766   -6.27684383164847
B        -0.49246051557683    2.72118464459668    1.31351503691561
H        -0.68134400963744    3.77152285930209    1.81836612307903

