31
CSD_code = ZORKOI | q = 0 | S = 0 | Stoichiometry = C10H12MoN2O5S | MND = 6
Mo       -0.02410532947169    3.27888658614402    6.00972986524436
S         1.63349919612549    1.38075518906888    6.91235039132972
O         1.24648556270583    5.29818974074137    7.99345888547936
O         1.97068108591294    4.29278741627305    3.86293474323839
O        -2.02005851803652    5.48208475508676    5.18548133346184
O        -1.44236403410992    1.33322788908507    4.04981349691186
O        -1.96939469018672    2.33849967446701    8.24250257450067
N         4.15746720334368    2.07116874876647    6.70181878485329
N         3.16327636743700    1.31024266811248    4.73755938492364
C         3.06731613260683    1.64010854808539    6.03929517902756
C         4.02006540289278    2.67042039467427    8.01040820316603
H         3.07799728619848    3.21377299085063    8.07212324514207
H         4.84532408777151    3.36546334031726    8.16295639259162
H         4.03256014802102    1.91443937913616    8.79962405071582
C         5.50855711720821    1.65982646762093    6.38254740880820
H         5.50629222395713    0.89347035493741    5.61351817126801
H         5.96255782524638    1.23677975819431    7.28148230174911
H         6.11893528981419    2.50574714381587    6.05723032803487
C         4.05645173136275    1.97549690719846    3.81067956938458
H         4.55297242667839    2.81487978050865    4.28833681308251
H         3.46995349997601    2.36245292487176    2.97470233735965
H         4.80185515995946    1.28287271399597    3.41217433598869
C         2.12650892225416    0.53701589368581    4.09523907334211
H         1.62002150049311   -0.08386787188025    4.83285666051127
H         2.58762158392729   -0.10175751224760    3.34134187050156
H         1.38837133815791    1.18306992427190    3.60749855448970
C         0.80076607998934    4.53113294445892    7.27540515837284
C         1.23414109214600    3.89517487508877    4.64497548049549
C        -1.27673322187426    4.66612749006659    5.48297832736931
C        -0.88935941189908    2.02422232022837    4.76894827994129
C        -1.24836305859354    2.66180856446593    7.42532879858605

