75
CSD_code = ZORLUP | q = 0 | S = 0 | Stoichiometry = C31H38F3NORu | MND = 8
Ru        5.94937543197358    3.67041222889875    7.45111150176216
O         6.31085610503107    1.78848084407965    8.09604247418843
N         5.56938761928338    2.64467756088917    5.85297536980486
C         5.63284713387525    5.83287228344429    6.86271024983055
H         5.28121392338191    6.30644206096326    5.95227287321045
C         6.22897355713961   -1.37407171412406    6.34280484207474
H         6.40976108167808   -2.42559776983025    6.48484790678749
C         6.54544635278704    4.78755047746418    9.30190177873737
H         6.92012242168326    4.43496952210102   10.25539062681696
C         5.80822996902583   -0.95473995970441    5.06754145807695
C         5.37530781523826    3.28579559040658    4.63970945613635
C         5.57151413937919    0.38496953534675    4.85649809867388
H         5.22826661953931    0.76219989187672    3.90703169398958
C         6.17389573631956    0.85159187275778    7.19811397485908
C         6.31810069434717    3.18279862913609    3.61071360953991
H         7.18785656728107    2.55772936123035    3.74948138976319
C         5.76706630189870    1.28933164203081    5.90696465357373
C         4.71118744268014    5.51023696979589    7.88357010650925
H         3.66116685298274    5.75441733347939    7.75215429498654
C         4.25666192188703    4.10475197888046    4.45099296899744
H         3.52262217956274    4.16009342526208    5.24329854539190
C         6.41436533591148   -0.52863335804667    7.41434745901977
F         8.31418421373141    3.26968231470075    1.71749499085519
F         7.43932289622362    5.00300511775797    0.79580134803487
C         5.63741651602424   -1.99946341660660    3.97469395283109
C         6.14259897794133    3.90828633756472    2.44628637193173
C         5.15803192680030    4.98748319828649    9.12518222967466
C         7.46674557604405    5.09165015522205    8.27782962169063
H         8.53143573140107    4.99788682895203    8.46765409229517
C         6.85728391325896   -1.00539117669299    8.78810184089908
F         6.69989126812888    3.04238981449693    0.31605957076406
C         4.09102135737997    4.81371805512053    3.27791069756110
H         3.22089941998442    5.43836800745570    3.14419802722504
C         8.18155629369060   -0.31427029389292    9.14015507954413
H         8.94928886000605   -0.58107107784074    8.41649518497709
H         8.51478612924182   -0.61956118814870   10.13003230527197
H         8.05509966896859    0.76460576795111    9.13083341471070
C         5.78293498584910   -0.61556677235023    9.81193613961645
H         4.83558063102275   -1.09001920884370    9.56359905111905
H         5.64251657775990    0.46083191503359    9.81427071349357
H         6.08001398925787   -0.93231278123899   10.80965100171578
C         4.17156687648106    4.67650615952184   10.22761373051454
H         3.17075280388242    4.95515485431853    9.87609005832623
C         5.03140293217358    4.72494492829936    2.26490680312215
H         4.91270319675179    5.27837862517384    1.34679296321874
C         7.01918722814514    5.61975000596862    7.03698802340131
C         7.06592863366247   -2.51998857148849    8.85730757203369
H         6.14475063752091   -3.05341056308286    8.63373343059387
H         7.37652610509956   -2.79338565434496    9.86382837742910
H         7.84292587782914   -2.84162708026374    8.16752880837305
C         6.98587519132141   -2.69017438404474    3.72633620974977
H         7.73229125491856   -1.95723333255332    3.42807011046403
H         6.88876965515295   -3.42741882766559    2.93205094225843
H         7.34327460385020   -3.19611923954507    4.61866781193336
C         5.16453590724956   -1.39230198539401    2.65082807271907
H         5.88315239770066   -0.66969556702989    2.27160104619439
H         4.19852661169881   -0.90641888890747    2.76645068308194
H         5.05780946652208   -2.18036716067670    1.90808713086761
C         7.14620525987703    3.80472777828185    1.33483747349751
C         4.17445766945373    3.17313201158297   10.51784073949518
H         4.03957812309933    2.61624682331591    9.58809839181280
H         3.37104137921727    2.91382625825960   11.20331807014932
H         5.11926249572714    2.87008446888654   10.96193136128644
C         7.99545683040717    6.05144110207941    5.98084426702647
H         8.28146704962481    7.09192778154841    6.14607408995579
H         7.55356080685206    5.97460734513500    4.98888148904047
H         8.89725041964536    5.44334446305806    6.01030513623183
C         4.59651370083331   -3.03577146314257    4.42116771343589
H         3.64530534624193   -2.54787180241661    4.62277602814362
H         4.91145794431936   -3.55295731922236    5.32288921769911
H         4.44651981220078   -3.77691136281592    3.63877395676749
C         4.47506797057197    5.48576977411722   11.49068213333594
H         4.48968707480642    6.55085022962124   11.26810552552572
H         5.43881016004994    5.20772968861947   11.90971283785244
H         3.71114444152575    5.30030090153424   12.24191882754995

