76
CSD_code = ZORLOJ | q = 0 | S = 0 | Stoichiometry = C31H41NORuS | MND = 8
Ru        3.57676478460411   -0.09474690791008    2.73963205816883
S         1.88430206663697    0.10719126231319   -0.29456497893848
O         2.07280128475589    0.08923907452960    4.09635320997317
N         2.67769516566187    1.46790485530098    2.08951743099804
C         3.14081608473876    2.12806512878810    0.95212410031399
C         2.89170882721989    1.55950029853403   -0.30939304843443
C        -1.18093015133773    4.54276581859909    2.92233977741892
C        -0.28027214128590    3.35203560070213    3.21760911090711
C         1.58244959390333    1.91566623968112    2.77030592217538
C         0.80189442992628    3.02647203975941    2.43115770640946
H         1.07195448492793    3.59361777355736    1.55483353819872
C         3.90255249154753    3.28950078033160    1.03689701540861
H         4.08399700363343    3.71549161479325    2.01333611208915
C        -0.56529848392741    2.55266892978696    4.33931773463333
H        -1.41464761321968    2.82693747495094    4.94149158299383
C         3.40980221322579    2.15103773792687   -1.44883328577656
H         3.21550132517718    1.73254538356672   -2.42362724485234
C        -0.16085492228224    0.59084478005631    5.92313700660046
C         4.17837023746706    3.29935130547565   -1.34379531401134
H         4.57850144577970    3.75189118604999   -2.23879613920712
C         1.27834333782973    1.10558016667165    3.89943753527995
C         3.14655054846726   -3.47235183260204    2.73977366708008
H         3.07809069606661   -3.72373051600667    3.80422363146924
C         2.17467079270162   -0.59363317770972   -1.95289864275399
H         1.71827793198140   -1.57814110284414   -1.94104991596102
H         3.24124557266263   -0.67865224671251   -2.13735767960369
H         1.69540112018974    0.01705873417030   -2.71153426891858
C         4.73613208360979   -1.74768418447544    3.72320181018090
H         4.61741928465579   -2.22486515342010    4.69058684541099
C         0.16739996606745    1.44544235476618    4.70936641426662
C         4.31174248086246   -1.69789039382575    1.33205837494725
H         3.88838008146648   -2.14271513707197    0.43894222624997
C         4.42273960890369    3.87009526997008   -0.10611195633926
H         5.01565571805344    4.76929383108162   -0.03136143652282
C         6.77231003810624    1.11643333416238    2.18215355701733
H         7.76104152621914    0.72251969147895    1.93818724593765
H         6.85328484236522    1.69321641541713    3.10117991284850
H         6.46268731992211    1.78162417393871    1.37748133277077
C         5.16064035474619   -0.57621922384619    1.20972125612829
H         5.38170726043506   -0.17110958707944    0.22686317650995
C         5.58442811377823   -0.62588606632236    3.60628680021458
H         6.13088414766920   -0.26963643480122    4.47387528663344
C         4.07804743575513   -2.29128177864320    2.59807078613269
C         5.79768694889583   -0.01538309217327    2.34216887222680
C        -1.13844280446235    5.51537536949863    4.10928763859083
H        -1.49838839829365    5.04484548702734    5.01985635293313
H        -1.76040576359870    6.38504137441884    3.90561444933910
H        -0.11797978214607    5.85181082459562    4.28048091548992
C        -0.74890640618504    5.30671252194266    1.66763607362394
H         0.25778799086668    5.70266159119955    1.77899352655119
H        -1.42427440385963    6.14382887702889    1.50032900699093
H        -0.78272615774998    4.66507228475437    0.79034677230777
C        -2.61821614056505    4.04950321532129    2.70517159891077
H        -3.00539986254709    3.55428100798397    3.59090061989654
H        -2.64911819862558    3.34221335366638    1.87919273699014
H        -3.27197969114140    4.88722599904551    2.46968889444795
C        -1.39165074037396    1.08393946970140    6.68782121609630
H        -2.27845447960786    1.06209059674495    6.05832162254735
H        -1.24301424864155    2.09425667563076    7.06265349970841
H        -1.56870470931412    0.43182616987629    7.54103501980308
C         1.74573781526093   -3.09064295231687    2.25047037895180
H         1.44487388509382   -2.14033296157885    2.69613333391874
H         1.02307106154745   -3.85380485723551    2.52946428958431
H         1.72787293678411   -2.97863332249593    1.16890893194721
C         1.04462685218794    0.61044006333188    6.87266256229477
H         1.23794570401509    1.62566470368696    7.21387513498581
H         1.92909756013762    0.24130503021951    6.36107329380253
H         0.85318435285919   -0.01847560980061    7.74003230637469
C         3.68280257931664   -4.69460627286787    1.99077665458500
H         4.67291451854637   -4.96210443215855    2.35468028383393
H         3.75061301988144   -4.49739391503624    0.92330527762586
H         3.01912694240770   -5.54306662011198    2.13984664917848
C        -0.42117509070309   -0.84698829163137    5.45434365599517
H        -1.25209153171067   -0.86912920211914    4.75197944798239
H        -0.66447722055210   -1.48285335348493    6.30334961925701
H         0.46147507237283   -1.24432724554976    4.96196110909152

