49
CSD_code = ZORLEZ | q = 0 | S = 0 | Stoichiometry = C14H24N4O4S2W | MND = 6
W        -0.13460103705685    2.21282421425107    3.01687998747673
S        -1.65884599350605    3.98839775330571    1.64223135659130
S        -2.27822728313572    2.15564166574586    4.61137444693517
C         0.62342897091512    3.79567647643149    3.92307134176628
C        -0.98336040238871    0.61860574308703    2.17489492455452
N        -0.47264729702502    3.49262682675226   -0.67675683532639
N        -0.20257887392615    5.63054723382800    0.20537368623096
N        -0.99290803478362    3.22270513350208    6.67676920208204
N        -2.74733784626038    4.46165237582650    5.78411653601751
C        -0.68934267250184    4.37467668561477    0.31639188586506
C        -1.20402223526423    2.24925034196069   -0.72283066931762
H        -2.17975937788975    2.37724178583979   -0.25712483498085
H        -0.66446885285808    1.45477962731277   -0.19730302884439
H        -1.33605658146498    1.96203635337463   -1.76637059020244
C         0.72316338771500    3.49719811394260   -1.49321646937065
H         1.42498449656553    4.24828413453540   -1.14376473682359
H         0.48154020874571    3.67356300614880   -2.54470445397519
H         1.20820330824957    2.52267934073185   -1.40924734030427
C        -0.17044957479826    6.49180811830215    1.36410658572004
H         0.02678924924850    5.89827456707348    2.25423388203570
H        -1.11887733718401    7.01999892298985    1.50080412365345
H         0.63150703930758    7.21818498211504    1.23487877750163
C        -0.08075095103595    6.33040791595044   -1.05510644903733
H        -0.46980280197883    5.72655369235684   -1.86930595382382
H         0.95802032960959    6.59939047976510   -1.26281676861242
H        -0.66899441366301    7.25060274675610   -1.00294858920829
C        -1.95553582342229    3.36598962940852    5.74173509375938
C        -0.34245025037861    1.94847257175461    6.86536457493055
H        -1.02636762723523    1.14456683529203    6.59976566816277
H        -0.06084623586782    1.85516099869146    7.91466165864950
H         0.55424447870928    1.86234590457422    6.24336474864002
C        -0.26099736325058    4.34091624672100    7.23295931581289
H        -0.57346634769871    5.27339299077058    6.77193002438740
H         0.80353537945875    4.20262311962548    7.02908376923199
H        -0.39710698265765    4.40152568904775    8.31608570354760
C        -3.60646109205275    4.76918968143366    4.66391215284717
H        -3.11367680447827    4.49455627990430    3.73278159860403
H        -3.80152110453114    5.84129716973383    4.66108341209831
H        -4.55543993973379    4.22914510366006    4.72336834595121
C        -3.13628965855886    5.10589587137251    7.02008174500945
H        -2.72889614960865    4.57520627577160    7.87557637401130
H        -4.22674840107467    5.08925709250866    7.09698075475317
H        -2.80747598242404    6.14817546852728    7.04617663890750
O         1.08647899864970    4.72025957496047    4.42984235359589
O        -1.44872109868457   -0.34223379625624    1.76755583244210
O         1.72116968430126    0.21712250120049    4.50635877573219
O         2.20708254534165    2.46607710801807    0.99211957170670
C         1.00721304577990    0.97056611403069    4.00635917786704
C         1.31927130566105    2.36058333169034    1.72542269274192

