73
CSD_code = ZORNOL | q = 0 | S = 0 | Stoichiometry = C35H34NiP2Se | MND = 4
Ni        2.34590532897978    5.18439894110216    6.85034877855397
Se        1.30408140463016    3.53122209632145    5.57922893063058
P         4.85564404506013    5.07980453047258    5.63920253225610
C         4.94219143584890    3.84424911499720    6.96595425296171
H         3.93556263618320    3.40476153103144    7.07168410936519
H         5.23322370436343    4.30492687600814    7.91064113193530
H         5.66004278648110    3.06949533804630    6.69659259843760
C         4.66469831198476    4.16467192739657    4.09168701224188
H         3.73100905010680    3.59774640995275    4.13755746390905
H         5.50840243593310    3.48521664102347    3.97437904455937
H         4.62708866695664    4.86327241454885    3.25664402866474
C         6.52042913965653    5.83818951444722    5.54476248354863
H         6.72228754674693    6.37649081947974    6.47012930620029
H         6.53602907325653    6.54430675259292    4.71497655017772
H         7.28392796542757    5.07766606763998    5.39264614161012
C         0.38999239945307    5.46051218559009    9.75084783537850
C        -0.65015977952992    6.08967040209608    9.07073894897795
H        -0.74073140312908    5.93778649866619    8.00235837229337
C        -1.54846594687084    6.88700381896978    9.75001694835231
H        -2.35220504461438    7.37317021763905    9.21675301686008
C        -1.41402554287533    7.06483288176986   11.11805956078324
H        -2.11112487329726    7.69278698070993   11.65361804628136
C        -0.38806975380963    6.43336020792252   11.80002329414625
H        -0.28906478178457    6.56414340279093   12.86851131417989
C         0.51456136192115    5.63167771225041   11.12264436499306
H         1.30875374209068    5.13824454452058   11.66521939945001
C         2.69355822319172    3.74882173186983    9.87249672518789
C         3.54896633670557    4.62677450001175   10.53780790113643
H         3.41773505482724    5.69295321771979   10.39810495066487
C         4.54563307985830    4.14301127248093   11.36269523736931
H         5.19690701213866    4.82930218471670   11.88597415685297
C         4.71423615995203    2.77465143290302   11.51453999482267
H         5.49524265419952    2.39507853069492   12.15715755602108
C         3.88535895001687    1.89736783288648   10.83600806217375
H         4.02171334939801    0.83118837876051   10.94650890484038
C         2.88082496281635    2.37890723365476   10.01402004324271
H         2.23872973848176    1.69199235468894    9.48076057691230
C         0.40322563504434    3.08367209415745    8.28688463552700
C        -0.35855442052699    2.45355217574384    9.26436924683044
H        -0.29042871118157    2.79837556203713   10.28838049205972
C        -1.19000102225977    1.40171795290864    8.93219873802568
H        -1.77937423969291    0.91455284969012    9.69532988564019
C        -1.26523696825129    0.97868375627179    7.61147280827285
H        -1.91536337995757    0.15677731184146    7.34644938513272
C        -0.52161530192530    1.60415706483157    6.63236817008364
H        -0.58247856684043    1.28596828879925    5.60179300529558
C         0.31787297251644    2.66770836351930    6.95337864161918
C         2.75097543066808    8.74443497250245    8.54609457987122
H         3.70591154951774    8.73948094999980    9.05616117697820
C         1.80587118994465    9.70400734777728    8.85645974056239
H         2.02606524405385   10.44946225922236    9.60770567368280
C         0.58082094889498    9.71389006626847    8.21180666287821
H        -0.15352820186513   10.46685749834683    8.45736447254611
C         0.29244038955710    8.74342536615135    7.26369960209225
H        -0.67160918653527    8.73514852243622    6.77593290092551
C         1.22939609794594    7.78216969673169    6.95186077957097
H         0.98611817494934    6.98990803394326    6.23066818680155
C         2.48317076332836    7.77822350585466    7.57855573674101
C         3.42724771019333    6.71257344381426    7.24860303532551
H         4.24612157579056    6.55032900961950    7.95266866508683
C         3.57637766141013    6.28224130764111    5.89679613371025
C         3.20992046925116    7.09146685137406    4.70975476613363
C         3.59776677186056    8.42927022694982    4.65835131040036
H         4.14148347459700    8.85761405956652    5.48975907600163
C         3.28356003072996    9.20783488189368    3.56089091455867
H         3.58603951931862   10.24495366037896    3.53694471526288
C         2.58734086452643    8.66198860353085    2.49513748647596
H         2.34541515353279    9.27191973254369    1.63722290398769
C         2.19080813841091    7.33573726254636    2.54164802899869
H         1.63118006239012    6.90775415255040    1.72298637201018
C         2.49478049696922    6.55603603181436    3.64151658580928
H         2.13543856930642    5.53500858751889    3.69713640297006
P         1.50025167308640    4.47344205069345    8.70094950617259

