87
CSD_code = ZORREF | q = 1 | S = 0 | Stoichiometry = C40H43CoP3(1+) | MND = 7
Co        2.49055969957126    0.30930841664340    3.66254307214856
P         4.29995458319644   -0.19517721381359    2.41804171366628
P         1.01582024327389    0.33166141174791    1.96496605656901
P         3.15267748916429    2.45514177585102    3.50617898504237
C         7.03179543008551    0.31105600403987    3.07663184502347
H         6.94049654123608    1.29327660643541    2.63669314218889
C         4.55218365024789    1.28943655645809    1.34194636819775
H         5.53152910604174    1.24398883347183    0.85828701096625
H         3.79510410087337    1.19874054301309    0.55658834043550
C         2.11547427139966   -1.32303886492931    4.71897823418616
C         2.95066098477390   -0.38390513054425    5.46753516057821
C         1.98964874592756    3.81963352349234    3.19271011060923
C         5.95426212337810   -0.56707671920203    3.09056850834954
C         2.43366894895636    5.07010455262316    2.76887138248557
H         3.48980275816416    5.25025285534025    2.62606461129718
C         3.72878946161943    4.24042719757096    5.63051909884029
H         2.79424088255035    4.73591899721323    5.41094725727282
C         4.14222936526094    3.15160697352831    4.86962385896005
C         1.81851729145800    0.51948991234009    5.58258121360550
C         0.99507445619352   -0.40329373406430    4.84782474590901
C         4.36365810156121    2.60734823495207    2.09213128985489
H         3.99676871360089    3.37126436996500    1.40163713731922
H         5.31063984726841    2.95384425459985    2.51495543625428
C         6.12017156999182    2.96454181102986    6.23166133489661
H         7.04534007241504    2.45982656496422    6.46783361856546
C         1.52382637560756    6.08777955801924    2.55034031934590
H         1.87125667311555    7.05470826995753    2.21927378645066
C         2.16151105272283   -2.79775634911422    4.53891901927784
H         1.99405652025282   -3.27262879137723    5.50846795845133
H         3.12788803100122   -3.13025057973830    4.16701352694333
H         1.38090028418900   -3.13547304516791    3.86008921097932
C         1.50745520050905    1.64126979338988    6.50346369123221
H         1.14356554576685    1.21964916196593    7.44321246387163
H         0.73138737527238    2.29139500179713    6.10559194554192
H         2.39347037452543    2.23355873565524    6.71996479151589
C         0.63278926055798    3.61594722638802    3.41479708107159
H         0.29625750408378    2.64517306812015    3.75528899708247
C         6.11549950989700   -1.83132791169327    3.65541463673499
H         5.28026643949795   -2.51968436004390    3.64832486015652
C         4.25038469862068   -1.51102494719260    1.15701806468441
C         4.51987689623755    4.69597634464479    6.67157779531093
H         4.19737244828621    5.54654869072777    7.25284721675647
C        -0.47514741628641   -0.55923306067182    4.71049565002322
H        -0.84813849537630   -1.09944487841204    5.58330363313172
H        -0.74037351003642   -1.13521516088362    3.82384693406459
H        -0.97602054959049    0.40679986784597    4.67555573927663
C         1.30870797714669    0.98703918703541    0.29677276705890
C        -0.27556072913408    4.63775407726993    3.19992216509186
H        -1.32854485589136    4.47183536084728    3.37237230289813
C         0.17002592476412    5.87326183446816    2.76084449906223
H        -0.53534337602973    6.67122277598280    2.58779219996867
C         8.24636797540437   -0.07274704510135    3.62025922189997
H         9.07932685864148    0.61400013084718    3.60015138289559
C         1.70420134759031    0.14864321642535   -0.74223033693954
H         1.81122097470546   -0.91277711066392   -0.56700107133931
C         5.31212145273378   -1.67747131523938    0.27167504631149
H         6.17248955916814   -1.02611816688586    0.32941369681999
C         5.27235330723192   -2.68577972159165   -0.67232417367464
H         6.09576377834497   -2.80983608983544   -1.35926295683648
C         1.95782127223050    0.67470959998719   -1.99623163192457
H         2.25956682580514    0.01947258377085   -2.79937732023003
C         3.16671248017108   -2.37637519432294    1.09486828245440
H         2.35216789236760   -2.24898932053207    1.79512954758863
C         8.39700402547072   -1.32867138086529    4.18264643253841
H         9.34558184666081   -1.62149041504343    4.60515571695420
C         4.18438642027343   -3.54348970372142   -0.73339026747919
H         4.16147598510750   -4.33361635032825   -1.46804231354230
C         4.17325707273105   -0.54431695967074    6.29274627372283
H         3.92586118014579   -1.15222176920923    7.16591089245590
H         4.53494124199860    0.42141201574776    6.63920140471378
H         4.96600306376697   -1.05062178607658    5.74530480748432
C         5.71679032582098    4.06626360176488    6.97008025487038
H         6.33029400440117    4.42818709625057    7.78059640165532
C         1.82078448666210    2.03496416639310   -2.22212914632424
H         2.01582079381546    2.44173202697914   -3.20242950641751
C         7.32879061047850   -2.21210005534624    4.19519933937053
H         7.44396362134617   -3.19574520372112    4.62476733504172
C         5.33251882628546    2.50516282999947    5.19344988294397
H         5.63258756128746    1.63235437016674    4.62930309015415
C         1.17444230383060    2.35398591385174    0.06584689698590
H         0.86130619526727    3.00462774999695    0.87076996345665
C         3.13256798669684   -3.39104626590404    0.15355928996896
H         2.28769122754014   -4.06266880543243    0.11262604878675
C         1.42609930556555    2.87276184981703   -1.19082779721251
H         1.30840485354314    3.93162452077508   -1.36655164105226
H        -0.20380783400312    0.96154600848237    2.17135756611393
H         0.43048357298273   -0.86752262430437    1.57904859858065

