67
CSD_code = ZORVOT | q = 0 | S = 0 | Stoichiometry = C25H38FeOSi2 | MND = 8
Fe       -2.34276535987453   13.78946769161735   13.85264074713986
Si       -0.84481206601729   17.58869185384463   13.34230872888763
Si       -4.53003289606402   14.24870362299570   14.04799848213699
O        -2.08670864924474   15.33180181387144   16.27109336211510
C        -2.38946887177940   15.36583770605206   13.08533132430078
C        -2.27630964909228   16.55892965070205   12.59032354220666
C        -3.15764669449079   17.11724222043572   11.56687459588186
C        -3.68283501512111   16.26709899960273   10.59339303954916
H        -3.41368868591448   15.22234391964267   10.62214968650780
C        -4.53325037308704   16.75060272252314    9.61909249938877
H        -4.93291950796918   16.07838405219548    8.87316510424952
C        -4.87559948998254   18.09309511667999    9.59620030115263
H        -5.53891129229316   18.47335816116646    8.83339233419108
C        -4.36389889617619   18.94346599535825   10.56175831504400
H        -4.63290674786169   19.99031408231687   10.55525189579805
C        -3.51186109352949   18.46257506804458   11.53889993100786
H        -3.13486314553769   19.13122650949310   12.29748613201529
C        -1.51884659918780   18.63310778550025   14.79117287848332
H        -1.90464401251976   17.98127593991824   15.56903756253051
H        -2.32406017212601   19.29786337475177   14.49509682854665
H        -0.73413083395920   19.24332952075340   15.22875218635314
C        -0.08477310805834   18.66728106820510   11.96044477230588
H         0.74630052421515   19.24941925785649   12.34591189582106
H        -0.80334645567975   19.35990189586269   11.53652605505498
H         0.29242053455336   18.05365014996808   11.14786187937677
C         0.48360544699759   16.40059363789893   14.00780886337391
H         0.98647973819855   16.81787499647219   14.87381985520826
H         1.24010513810284   16.17973234291474   13.26229329471222
H         0.01842356141788   15.46579073407702   14.30683185445089
C        -5.11106152267583   15.98823072812562   14.62914446951677
H        -6.18268435265756   16.00851389478263   14.80237587461987
H        -4.88220172300113   16.74648593602549   13.88837679470624
H        -4.62240925199429   16.27470551000170   15.55340425021635
C        -5.18719184198815   13.06218354554197   15.41401414427542
H        -4.56443134971936   13.12358813333219   16.29922364528726
H        -5.20473733614705   12.03025622987616   15.08888169261870
H        -6.19812270879533   13.33167960579789   15.70029259698679
C        -5.55067164028688   13.93899023226698   12.44587272418926
H        -6.51506043117815   13.50255435364637   12.68240587106041
H        -5.04769176001809   13.27684182692847   11.75278649381464
H        -5.72650002800831   14.87421835392766   11.92696763173205
C        -2.21813873284255   14.67247183291418   15.33308052309329
C        -1.96608700925953   12.38888458994419   12.22397255273095
C        -2.62023837468922   11.65537762871943   13.26124388762135
C        -1.82695535008140   11.77007584350627   14.42956403475891
C        -0.64181768260915   12.50952862543899   14.09515073463030
C        -0.72133194387093   12.86668406350380   12.72337731006020
C        -2.35003607071744   12.38284414394849   10.77767444005345
H        -1.87969668933837   11.53713273837168   10.27048229523502
H        -2.01947390375422   13.29497280673654   10.28636172547083
H        -3.42605068786371   12.28975094796252   10.65522367596899
C        -3.78744701106599   10.74316891654264   13.05346401359600
H        -4.65301580062370   11.27228072704422   12.66310337942667
H        -4.07087224638718   10.25695236610560   13.98274702840515
H        -3.51508202901275    9.96685822773605   12.33564695587870
C        -2.03780043806305   11.04994009565334   15.72553263192137
H        -1.54719870711078   10.07457322397696   15.70175672000832
H        -3.09542721953471   10.89801166059759   15.92183494214524
H        -1.61923627026668   11.61840439934975   16.55232153030391
C         0.54339526824467   12.65174749351340   14.99989559421930
H         1.23427510221127   13.40592302513263   14.63310526607239
H         1.07608719067963   11.70105682904417   15.06696445504619
H         0.23415087414152   12.93555907094241   16.00351845007447
C         0.33139349363663   13.51195106337047   11.87717516626513
H         1.20515182739457   13.76941930296372   12.46808642813043
H        -0.04939148201421   14.42041904350698   11.41327016115940
H         0.64155251136607   12.82810309251130   11.08568196089992

