60
CSD_code = ZORWOU | q = 0 | S = 0 | Stoichiometry = C25H24ClN2O3ReS4 | MND = 6
Re        6.95816650771716    1.93589268308375    3.96384330543047
C         3.84586353751000    3.40788702169925   11.33149543325781
H         3.38431280817818    4.16081243633111   11.93863547928982
C         4.17821738626082    2.13285751058631   11.67113700373224
H         4.00895690591480    1.71162112255295   12.64539221063689
C         4.76798392010259    1.42924578930952   10.61012966596033
H         5.10106736255037    0.40847170002986   10.67981306672204
C         4.87994017311216    2.17252121738429    9.45723576642557
C         5.43634294368832    1.72150432323754    8.22340414155291
C         5.53484442489221    2.33312579565681    6.98482230580157
C         6.50194857785928    0.39623312588879    6.48758049867282
C         7.12543726709572   -0.54186650340615    5.63149790056006
C         7.93192526285108   -1.27155889475925    3.69465926373686
C         8.17289624003590   -2.39780217032419    4.46363611385926
C         8.75382516538552   -3.65868924592858    4.13475462752495
C         8.86434630162706   -4.73988679063377    4.97912751232078
H         8.50732626104487   -4.72530805183580    5.99406870714583
C         9.48099366599735   -5.85064883827742    4.38359969534289
H         9.64988469226924   -6.78282877583481    4.89132605260902
C         9.84341729111421   -5.61723648222642    3.09299818492693
H        10.32537427860015   -6.28281447116893    2.40503344081290
C         5.09431903991990    3.71800880853058    6.66256006936807
H         4.17008410675183    3.95324343690728    7.19389808469871
H         4.90211772307253    3.78056196028425    5.58839974176120
C         6.18842263543779    4.72394498433718    7.04752350721194
H         6.42095869552110    4.62132241293985    8.11031968140074
H         7.09560063254788    4.49203227020642    6.48539396524962
C         5.75651858234840    6.15709810148877    6.75963388096618
H         5.51075804095110    6.25354504534965    5.70089487167835
H         4.85675945475897    6.38371745883993    7.33707454199447
C         6.85676083195997    7.14870585509410    7.11437733581186
H         7.10752864380411    7.08207080259538    8.17116906312539
H         6.53785871669302    8.16567283494304    6.89972531604592
H         7.75271836723018    6.94014172512924    6.53482443431444
C         8.30362362520431   -1.10063114233563    2.26344239284565
H         7.64957987248920   -0.34427386855604    1.82207439715327
H         8.16350168100873   -2.03810533703574    1.72197326961668
C         9.76536544777887   -0.64498138135465    2.15011526846840
H         9.88019498112368    0.30732520147364    2.67232048727923
H        10.41362983057490   -1.37403579878165    2.64249490569449
C        10.19255923534057   -0.48907519419183    0.69533434117704
H         9.53593381537458    0.22902434021957    0.20157917304625
H        10.08664674008988   -1.44973510851766    0.18516128786526
C        11.63422853010862   -0.00903439031872    0.59116632526187
H        11.74535152925608    0.95710486597926    1.07731856987060
H        11.92795638664482    0.09467399047712   -0.45039369380110
H        12.30924592250248   -0.71492984491307    1.07089355407759
C         6.72449358663604    3.86115375795996    3.85053227233387
C         7.88341731402418    2.12546907071745    2.26612345570408
C         5.24686587079181    1.55292458961968    3.12959286163360
Cl        8.94292549275722    2.13251574872383    5.19921370870466
N         6.12983522998334    1.57698435041583    6.03950816072366
N         7.35032950541411   -0.25651211063463    4.36606228316560
O         6.66414066212174    5.00226130673351    3.75477153585948
O         8.46331539228121    2.30713890387051    1.29368009577933
O         4.22744356567747    1.29121688199750    2.66564130521697
S         4.24649186704889    3.77490253838963    9.70661580682609
S         6.13076284449049    0.12102654729197    8.15200762054180
S         7.62290990266087   -2.12869371957676    6.09892110577811
S         9.43767472381080   -4.03421239566842    2.57836463922912

