46
CSD_code = ZORWEK | q = 0 | S = 0 | Stoichiometry = C17H18Br2ClN2O3ReS2 | MND = 6
Re        0.29496448850754   10.65787003080026    2.62168167461211
Br       -0.68239366640232    4.82362103181506    4.58520857508627
Br       -2.01883366137123   10.39816477607806   -3.15881514949371
Cl        1.99370519433687    9.50541494616604    1.49086339604861
S        -1.25816811865712    6.34052390745045    1.89731765001949
S        -1.72770827448905    8.30706837387491   -0.83533978630465
O         2.05866370386621   11.03269150922964    5.12826307553892
O        -2.25391437484167   11.82863503590649    3.92254934576804
O         1.46606024726636   13.41143067351031    1.85887304547523
N        -0.42094077820530    8.54346078616287    2.93484967943968
N        -0.80716771323322   10.13597784702789    0.72617881349699
C        -0.69581294030218    6.37254245900191    3.53766018177772
C        -0.29113623082848    7.62730759025892    3.91899147127089
C        -0.90483282140214    8.03229948124099    1.82163628416637
C        -1.10264294747526    8.85316810408281    0.68237832519278
C        -1.04914781212415   10.76935223210629   -0.44221571094204
C        -1.55102235447712    9.93425293254392   -1.40879901206956
C         0.31039184333040    7.95550574680661    5.23909831724439
H        -0.14072348141589    7.33361225304547    6.01504865236891
H         0.11580500579560    9.00563498613295    5.46767319505230
C         1.82518938757643    7.70252428530155    5.19101023872065
H         2.26141678265833    8.30041925112072    4.38744068762908
H         2.00727289825710    6.64968464549606    4.96045669994930
C         2.49701605600203    8.05431851259407    6.51356651242682
H         2.29524329996148    9.09911862687082    6.75512692057695
H         2.07387618740975    7.43682313480190    7.30942308578967
C         4.00262445737171    7.83537032703829    6.44030193387451
H         4.22949704865037    6.79577645153261    6.21312468746378
H         4.47088332729658    8.09046870666284    7.38747988605399
H         4.43697771039529    8.45967244265479    5.66316941586514
C        -0.71629634511540   12.20324936512839   -0.65493337863788
H        -0.79609108332955   12.73215596204793    0.29734029873739
H        -1.41841363545898   12.64364427465663   -1.36584694744861
C         0.71490194867470   12.32354973028504   -1.20104154430286
H         0.78375091614810   11.78948170513432   -2.15228108818421
H         1.40502399377607   11.84742896128373   -0.50058037295164
C         1.11789830773966   13.77937205426694   -1.40723622959263
H         0.44754492933198   14.24016925430245   -2.13666037438159
H         1.01317803304686   14.32052543371800   -0.46547877838274
C         2.55747382516072   13.88760691144863   -1.89295136858182
H         3.23502936825456   13.45030669914759   -1.16353367831786
H         2.83331722710700   14.92910378223819   -2.03678968887889
H         2.68502730450072   13.36396138289006   -2.83806032709690
C         1.36915255407971   10.87627917803789    4.22750019728753
C        -1.29138057983157   11.41600284593497    3.45174496957899
C         0.99034077245734   12.40385137216195    2.12350621905716

