74
CSD_code = ZORYUC | q = 0 | S = 0 | Stoichiometry = C30H39N2OPW | MND = 5
O         4.90620428773817   15.69895603214930    7.67665491012639
W         3.77214753505170   15.45882940803001    6.42597807950370
C         4.16491586009578   16.76954370886017    4.98712063855720
H         3.70761909526543   16.63874963752399    3.98308570697648
C         5.03253988893456   18.01018063269838    4.96575888964789
C         5.24616707746963   18.48541894461722    6.40963313939064
H         4.26929925878905   18.68361948162410    6.85576946651844
H         5.83373811710962   19.40165767557913    6.44235110982947
H         5.73911200800792   17.70798507147874    6.99578877266784
C         4.32655480559133   19.14886826985311    4.20089504848563
H         4.15624322451629   18.88585069309606    3.15963625073795
H         4.93091945857532   20.05397415872385    4.22789851713308
H         3.36431524695610   19.35469213907704    4.66594810113700
C         6.33714629688220   17.67636335601718    4.25125803851490
C         6.29985400544417   17.19255110635569    2.94396801565940
H         5.35202404921689   17.06896220195588    2.44058095304086
C         7.45627578264012   16.86092308531623    2.26250621924173
H         7.39311347928411   16.49255914099295    1.24831962151520
C         8.69053454543955   17.00128467276489    2.87390879002800
H         9.59578551456643   16.74335036831918    2.34464904564448
C         8.74671541942888   17.48243742632553    4.16921306417760
H         9.70286380045027   17.60270077752311    4.65846694481895
P         5.66657141532149   13.85865529752024    5.95529085540271
C         7.58578019472726   17.81684791801232    4.84837101823322
H         7.66865010655345   18.19003297494822    5.85559568488968
C         5.99588462255931   12.81685617274060    4.48894943117854
C         5.75586882880130   11.44954574169069    4.44553750669710
H         5.38442954712484   10.93242046348490    5.31655351741190
C         5.97843438914364   10.74243721028390    3.27621373833775
H         5.79215763841136    9.67878667927404    3.25087560602104
C         6.43178453598955   11.39242675995197    2.14086619397499
H         6.60437490243136   10.83618527870773    1.23156819317065
C         6.65367907083751   12.76023382228512    2.17227070287427
H         6.99778686434817   13.27405183747639    1.28687300958357
C         6.42804067730465   13.46896409693860    3.33651724856895
H         6.58046527065364   14.54025914742701    3.35931438156781
C         7.32796411554943   14.60530539364755    6.19758764667188
H         8.09209566502865   13.82808249017819    6.22753302924458
H         7.30677462395460   15.15161354404082    7.13975797870127
H         7.55121294722360   15.30726180435235    5.39706376656822
C         5.69225185210738   12.63786471323016    7.33015775869452
H         4.78278717298913   12.03637385759540    7.32440980438877
H         5.73179041418583   13.20368401887279    8.26210105893867
H         6.56711165394235   11.99146068020226    7.25538470970048
N         2.68893618771562   13.70986241982667    6.14217981203582
C         2.88645261461171   13.35688765154524    3.67754990422071
H         3.34872369960511   12.57492180541894    3.07692768817286
H         3.56117716320268   14.22427568466821    3.70853908412173
H         1.95922607807528   13.65393885736420    3.18168860522597
C         2.61848542622054   12.85737677474480    5.06490114166807
C         2.22663102786274   11.60874502341552    5.48324607788971
H         2.07876777265168   10.74374376489207    4.86497857257655
C         2.06461962974348   11.68152785899060    6.88490069268151
H         1.76853386793358   10.88174459052813    7.53727116983427
C         2.35902223274056   12.97309725041241    7.25179071177591
C         2.38010104233055   13.59756955644810    8.61414921842314
H         2.41681051397911   12.81885464226908    9.37484228272832
H         1.47935909331984   14.19320838436080    8.78562743104698
H         3.25813800618810   14.25069348469069    8.73354089121479
N         2.01031833179862   16.34440421258379    7.13322108463885
C         0.63898491304088   15.73505672747735    5.11609165765404
H        -0.20873395291194   16.19914101283442    4.61382474700624
H         0.44298210100381   14.66071615706240    5.17587154883029
H         1.53908659280437   15.90360009158633    4.51140627477486
C         0.79914058679760   16.34020438794449    6.47706864110082
C        -0.15825686051815   16.95985176707451    7.24054910320180
H        -1.19057855921351   17.10038357303056    6.98120822380074
C         0.47761860090325   17.37700727224285    8.42591692214340
H         0.02823303630363   17.90137493421631    9.24769932780509
C         1.79237104736986   16.99009348599090    8.33085780956338
C         2.88349818272283   17.23012284176011    9.32826306297107
H         2.67937190730099   16.70416140012813   10.26262416981999
H         2.95984872625030   18.29340599957681    9.55785846245223
H         3.84544572344682   16.88832049510738    8.93082351644514

