121
CSD_code = ZOSCER | q = -1 | S = 0 | Stoichiometry = C49H67N4Ti(1-) | MND = 4
Ti       15.16495338061662    9.27159119331335    9.32089167840946
N        14.62557875216843   10.67316369145566    8.05452037937895
N        16.73703228211818   10.16245005245522   10.10359147585610
N        13.64471601518257    8.39699265750258   10.31895824468702
N        15.84876775285809    8.13678669234547    8.29612427479457
C        14.19998131239332   13.18771568676505    7.93848957048302
C        14.75577403639359   11.87837796688752    8.56840413970779
C        15.41162083189758   12.10646504508764    9.80162343570822
H        15.19972482176046   13.06931895075538   10.23185498482544
C        16.36414679107764   11.36682451674754   10.50994466484746
C        16.87332280895157   12.02070663168619   11.83128790396949
C        13.51284519288714   13.04243328340091    6.57640274458094
H        12.68820778894667   12.33729024733900    6.60739706059316
H        14.20864547934335   12.71780478894008    5.80978896278291
H        13.11422328790220   14.01467791932924    6.28026338147200
C        15.37437919686440   14.16205467273780    7.73985660498363
H        15.02410929664145   15.07904209778489    7.26552304510386
H        16.12805560508536   13.70935313881806    7.09905862562695
H        15.84680367222062   14.42606834536905    8.68195840612213
C        13.15880898697459   13.82383426275863    8.87854577959052
H        12.32907386468759   13.14005479350631    9.04769652664529
H        12.76048666094573   14.73284739216307    8.42739243776534
H        13.57482664075639   14.09183977890924    9.84567991464685
C        15.83464654515555   11.67839111372471   12.91090692674130
H        15.72618795300100   10.60117353292780   13.02090153143208
H        14.86098275146810   12.08817092894596   12.65518080812256
H        16.14024567141644   12.09045476886259   13.87337450171942
C        16.97496869414463   13.55762077162758   11.75582781651290
H        17.50741471001515   13.88609011240244   10.86595372778896
H        17.51966174419590   13.92527846558025   12.62514212804538
H        15.99751366144826   14.03451162765062   11.77120375830888
C        18.23329162746243   11.51683531307117   12.33133809112166
H        19.02140324822604   11.68994440373199   11.60550509472645
H        18.21031299463575   10.45762380102722   12.56499456072927
H        18.49129852249675   12.05126122578273   13.24744929025067
C        14.18424768649040   10.30641603521740    6.78214044497080
C        12.89906456955624    9.75379111007491    6.57864736894021
C        12.44400020435202    9.52813025530305    5.28797048291195
H        11.44318565349376    9.14957636073386    5.14022400985833
C        13.23461325941824    9.78032092781066    4.18505057445149
H        12.85567444986718    9.61502733628295    3.18580515572462
C        14.53412436218560   10.20592414350786    4.38362220701301
H        15.18088527403082   10.33736083983577    3.52831508846182
C        15.01898912673469   10.47382886951252    5.65233888822215
C        12.00766322164533    9.37937802685916    7.74013857680319
H        12.64997022222500    9.31482713701223    8.62823668752540
C        10.90216677674865   10.41304281778219    7.97350121898276
H        11.31738411685459   11.39700687881306    8.18260684462533
H        10.28533053416817   10.11659139869942    8.82082960970976
H        10.26464290543409   10.49634774742639    7.09287288044891
C        11.38502272909585    7.99454888895409    7.54285003615680
H        12.15719143398251    7.28390066008518    7.25891117961291
H        10.60830017684475    8.00618688645815    6.77928223657682
H        10.93843949703252    7.65304043456409    8.47475833968738
C        16.48255217921783   10.79191859637433    5.82974370016642
H        16.62319412921483   11.23576359793517    6.82143246807172
C        17.04708064639833   11.76456053496405    4.79118533747522
H        16.42732418176810   12.65697738577059    4.70708194052402
H        17.11478675322585   11.30084626121046    3.80963227549650
H        18.05063894180367   12.07191877874946    5.08249558815643
C        17.20726010114153    9.44279839912981    5.79045955156943
H        16.85324178675231    8.83917308062384    6.64172677056302
H        18.28319639936383    9.56972754900148    5.85654893327926
H        16.97295189277271    8.92069940527990    4.86450322739641
C        17.91274121968544    9.48330855152820   10.38953842131464
C        17.93658903063145    8.40843219306637   11.30310124391811
C        19.14051817452102    7.80607695973496   11.63055215349901
H        19.15260712453969    6.98497709123781   12.33310215550587
C        20.33224999485336    8.25016847017405   11.09145828550867
H        21.27061934872572    7.80350663551718   11.39052610451948
C        20.30502385739626    9.24152436200489   10.12885584613818
H        21.23480554036947    9.54479937775482    9.67109575161377
C        19.11837659870510    9.83993317650862    9.73722976885805
C        16.65156502692841    7.86374760078811   11.87721962591914
H        15.83818631110742    8.56080056909859   11.62216458126358
C        16.70250653481088    7.69816028212471   13.39809475578371
H        17.00158945708455    8.62678591893004   13.88393092068462
H        17.40868858874669    6.92101098666802   13.68422428023581
H        15.72230513815515    7.41580940557353   13.77689314394014
C        16.35641304147407    6.53597289896639   11.17475223702354
H        16.28496811625705    6.73805612713077   10.09899947532427
H        15.41339123225799    6.11244343785711   11.51838521506660
H        17.15388430559062    5.81727480320846   11.36024495939437
C        19.08614519379860   10.78003610353936    8.55182295040573
H        18.11119947212541   10.60934966821698    8.08073578223268
C        20.18281984126136   10.46070798916835    7.53320764801553
H        19.98915917349494   10.99402158067256    6.60378981393236
H        20.21246724885146    9.39432181377584    7.32573710702693
H        21.16058821283501   10.77744545661468    7.89429658200118
C        19.18439923399767   12.25989497934931    8.92885985996548
H        19.23235963398022   12.87083334121002    8.02760989571636
H        20.08001306434963   12.45238425791813    9.52015579477578
H        18.31010692004047   12.56223224844559    9.49444282355208
C        13.13429477821171    7.13203828570442   10.23112610486073
C        13.64997189749291    6.24694567621038    9.26338087374808
H        14.46067256664008    6.62473664571716    8.63993034055599
C        13.13144993749522    4.98454297885316    9.10520817374961
H        13.55732300831125    4.32520605529236    8.35940687201118
C        12.06095425544510    4.53105051031199    9.87637318705780
C        11.50954495911754    5.41435130258100   10.79102319566800
H        10.65178082372478    5.10834428161726   11.38022509092158
C        12.01990284212857    6.68582554091426   10.96636713786866
H        11.52814928834258    7.35311669091545   11.66370849728677
C        11.52135470955941    3.13956616642924    9.69934782698312
H        10.63073839622017    2.98812570962981   10.30738010411403
H        12.26634428628878    2.39716175678054    9.99191466865266
H        11.26317799312159    2.95561977843824    8.65574176276770
C        13.30117847358778    9.20289518284279   11.37421082677833
C        13.26963295151050    8.75276899679868   12.71191305364016
H        13.54611852711346    7.72709471689858   12.92121465643220
C        12.90013741184640    9.58594241961065   13.74405384812639
H        12.89483516472373    9.20437162794729   14.75843855116705
C        12.52113187122487   10.90430719674487   13.51227528764600
C        12.55607024012835   11.36421994894019   12.20107975958754
H        12.25776108993285   12.38511268991200   11.98819151703796
C        12.94451189936115   10.54668022299060   11.16032735750298
H        12.93070831366303   10.93605555475010   10.15155542270268
C        12.12189016014702   11.80615695165130   14.64468369363536
H        11.57440206244946   11.25341238852124   15.40733431257566
H        11.49522240946069   12.62242410894016   14.28779445047546
H        13.00601725210350   12.24113011194277   15.11712214190200

