135
CSD_code = ZOSDOC | q = 0 | S = 0 | Stoichiometry = C68H60N2P4Ru | MND = 6
Ru        7.15251797037024    2.98377004009384    5.82323577285193
P         5.65805188100247    3.84728300399384    7.32130405748122
P         5.70270629874347    1.22333349884563    5.76781306624857
N        12.60068362906848    0.27202183150352   12.25534794075327
C         8.38547107275106    2.40863838483921    7.33626313639079
C         9.12548657738565    2.03285718481665    8.22334335714251
C         9.98589780865138    1.57705731771211    9.25204026858500
C        10.06530413530447    2.25349129577741   10.47151586532198
C        10.90525671726002    1.80680897002500   11.46896393399026
C        11.69588358463490    0.67367177362685   11.28008759171889
C        11.61710926087431   -0.00282646460796   10.06327171114612
C        10.77772315363733    0.44167576297020    9.06425051593248
C         4.20987990945051    2.68823530990362    7.47635853682030
C         4.04445079980518    1.95059232827336    6.15595618976618
C         4.79799286367944    5.42671351125327    6.99720557788122
C         5.25431304127895    6.24461688813273    5.97508598480561
C         4.63943513813608    7.45550277832939    5.70850577362028
C         3.55591022027585    7.85810997511798    6.46943211087978
C         3.10262268589652    7.05414975735621    7.50488255447701
C         3.72032387307412    5.84781390653940    7.77400545459795
C         6.09921154757848    4.08588529777095    9.07808226385994
C         6.24961804420530    5.35298657313134    9.63153881907930
C         6.66336678074160    5.49878619563823   10.94293708271105
C         6.93839095469933    4.38484651551985   11.71674206369570
C         6.79920108092154    3.11922270782861   11.17094778192223
C         6.39030807182581    2.97117426676857    9.85968787050960
C         5.60315200479557   -0.16777228545954    6.97137048639513
C         6.46741394778691   -0.23968107915473    8.05652475542111
C         6.34603402598222   -1.25962135588144    8.98571514499044
C         5.35809171377967   -2.21682608981228    8.83935253035941
C         4.49125556177289   -2.15229711642716    7.75872676385199
C         4.61052116912749   -1.13588453574250    6.83092893418124
C         5.40124587930596    0.27705429414368    4.24042591488714
C         6.05965633656893   -0.93804547995455    4.06179183100410
C         5.85081922625353   -1.68639427071210    2.91898554811138
C         4.99508107535345   -1.22415187130192    1.93278115051736
C         4.35154171370658   -0.00967071295333    2.09630580561600
C         4.54887243275262    0.73781867242347    3.24335470223274
H        12.89316531703317   -0.69142748764138   12.20159983691980
H        12.38857524712093    0.57680436292672   13.19278651827438
H         9.45475083893145    3.13239667585347   10.62731977045117
H        10.95887205666570    2.33735729116218   12.41087797297918
H        12.22656050596276   -0.88353102798797    9.90770960649309
H        10.72687547351861   -0.08932729589654    8.12280835003505
H         4.42896733240183    1.97269777723378    8.27745055397231
H         3.30447932450365    3.24249343224537    7.73936732408273
H         3.27710340711804    1.17227538977382    6.21873025579453
H         3.78808374967684    2.66089065278329    5.36358381103123
H         6.09561250882395    5.91135290689550    5.38465036429601
H         5.00787489875219    8.08128116469064    4.90750030699060
H         3.06649617359447    8.79919094562326    6.26401761884521
H         2.26569235755011    7.37490854326361    8.10885997382373
H         3.37887896154766    5.24368813370062    8.60422716807585
H         6.03819155653995    6.23039945894862    9.03824826669686
H         6.77209693554468    6.48930495656874   11.36069162394624
H         7.26422289950691    4.50182871500889   12.74025419158313
H         7.01862996790091    2.24441634494670   11.76619738767131
H         6.29909945622048    1.98108985346791    9.43911175835379
H         7.24633701282875    0.50452832882580    8.16767649787954
H         7.02861650423215   -1.30289325017914    9.82254995785449
H         5.26168830336003   -3.01446419418722    9.56171269694044
H         3.71971256079683   -2.89982120352217    7.63996076304898
H         3.93883038312219   -1.09893508690970    5.98322591383324
H         6.72993010366621   -1.30262662017522    4.82925546661745
H         6.35885519274790   -2.63285009432652    2.79703604039594
H         4.82916582903348   -1.81054675865064    1.04057365798572
H         3.68401185745170    0.35706061236991    1.32977735304029
H         4.04409323604563    1.68379403244519    3.35880732037216
P         8.64709304245121    2.11971320196074    4.32563430927958
P         8.60231225540965    4.74421658103146    5.87836496057057
N         1.70160861666993    5.69929223641122   -0.60488486137136
C         5.91932521683477    3.55941016018237    4.31060943294360
C         5.17740424943477    3.93549739887812    3.42526329849819
C         4.31689097443370    4.39234004185782    2.39712127051059
C         4.23689834468242    3.71640926108842    1.17739010965670
C         3.39676953262897    4.16370093174118    0.18038589064866
C         2.60663811044524    5.29708834830780    0.36989952441576
C         2.68619066995777    5.97322083872832    1.58685431563697
C         3.52563690759208    5.52799486901731    2.58551860609946
C        10.09537900925256    3.27864941954084    4.17058316408800
C        10.26057471563982    4.01666705149509    5.49080532832290
C         9.50713182767748    0.54035633776748    4.65017080291675
C         9.05075765452198   -0.27728102108021    5.67247466802697
C         9.66568829438335   -1.48804178012643    5.93948432149424
C        10.74934872921310   -1.89078823973123    5.17882217584256
C        11.20272783486513   -1.08707933131100    4.14321612221403
C        10.58496355861142    0.11912824679912    3.87365962760198
C         8.20609845238877    1.88108065796612    2.56881689644974
C         8.05710563505956    0.61418673855299    2.01452931627008
C         7.64352650542438    0.46886183313885    0.70301773581961
C         7.36717995098114    1.58302094993403   -0.07000189983118
C         7.50492815508960    2.84843029294255    0.47664607950970
C         7.91375205284770    2.99600316558764    1.78797297548482
C         8.70204258519669    6.13500276378093    4.67444501336232
C         7.83723542789458    6.20755797169745    3.58977020631975
C         7.95878156730117    7.22752733758105    2.66061855304252
C         8.94736861643098    8.18412869630274    2.80656233202704
C         9.81472044234953    8.11897787083684    3.88673841209005
C         9.69530435715454    7.10253864789627    4.81447459323994
C         8.90371686314449    5.69113613325490    7.40537680756140
C         8.24575314033916    6.90659664563604    7.58323074187206
C         8.45468927804447    7.65550703256089    8.72565016211997
C         9.31012456364900    7.19350121153519    9.71222827443341
C         9.95318217043621    5.97865750887135    9.54949982162783
C         9.75570866124536    5.23057234937429    8.40286126865016
H         1.40929272727737    6.66276251283619   -0.55074100356772
H         1.91315097017833    5.39463718490123   -1.54247905305626
H         4.84719963391140    2.83741508379798    1.02109126782147
H         3.34256659440596    3.63343143204929   -0.76164834438011
H         2.07722000300314    6.85416494749002    1.74288105217826
H         3.57694781378742    6.05869907998665    3.52709855405760
H         9.87659311124534    3.99393624608509    3.36918210856332
H        11.00080603828311    2.72422070254808    3.90803814225792
H        11.02810557654530    4.79480077019513    5.42805785456426
H        10.51657768838477    3.30653488496660    6.28345346571290
H         8.20937184608067    0.05608865980436    6.26271948682213
H         9.29718903979309   -2.11360548860092    6.74062958801254
H        11.23881076324231   -2.83177054586589    5.38457267851583
H        12.03977375497173   -1.40793878918914    3.53944291647126
H        10.92648732943888    0.72303557027740    3.04330718988808
H         8.26951766896176   -0.26340558907982    2.60719824840240
H         7.53591428905143   -0.52148488815552    0.28455365146892
H         7.04146959615797    1.46635760929407   -1.09358925685195
H         7.28452759287320    3.72340102900975   -0.11800097150602
H         8.00401246063402    3.98586330496752    2.20929502389532
H         7.05774702629592    5.46389220911991    3.47894779691221
H         7.27582789330630    7.27129796251464    1.82411687398214
H         9.04389405662838    8.98177316519804    2.08422573924232
H        10.58673514590678    8.86605638708692    4.00523624642533
H        10.36732881024455    7.06517805762148    5.66189229273885
H         7.57574672815323    7.27103033805905    6.81547189175861
H         7.94695819890932    8.60220385132955    8.84699478334856
H         9.47613049651181    7.78034216166973   10.60412542988322
H        10.62044601888677    5.61209376363666   10.31633434449097
H        10.26012101659517    4.28432268686868    8.28804446646299

