89
CSD_code = ZOSGUL | q = 0 | S = 0 | Stoichiometry = C44H40ClP2RhSi | MND = 7
Rh       11.92339968142862   12.43813100103314    7.58254853934941
Cl        8.84036146009923   10.90027354552445    5.66768910897878
P        12.20821784502134   10.90387016568170    9.45273999450240
P        10.57140217119853   14.12228606896779    8.46111259902128
Si        9.88007244029720   11.33450571607795    7.44225464662867
C        10.02964788837130    9.63499629028441    8.31231148266458
C         9.15796081724856    8.57474950760947    8.11540061700632
H         8.35894281280027    8.67453393457491    7.39568878519264
C         9.31366373908816    7.39197621213359    8.81633393993287
H         8.63241196639611    6.56999695911431    8.64917933369430
C        10.34073018546895    7.26241029825638    9.73830799218139
H        10.45718066877646    6.34355471382335   10.29515501794270
C        11.22107839210993    8.30868946521121    9.94299324545237
H        12.02355472128304    8.20746584833806   10.66114639771041
C        11.07849886597606    9.48462780849607    9.21562511525566
C         8.55604688877857   12.26979540568612    8.47058397874078
C         7.30329998029993   11.75847228107319    8.76973229575911
H         7.02108476233119   10.79043344974750    8.38294054348768
C         6.41989098619120   12.47440304196304    9.55885339080173
H         5.44696212844364   12.06592517937831    9.79099375273218
C         6.78886666621789   13.71193991726798   10.06003025304222
H         6.10529661078476   14.26949492316528   10.68444696811951
C         8.03255956344142   14.24113591882384    9.76238446121509
H         8.31244920344498   15.20251514349653   10.16657590436448
C         8.91377541869379   13.52528953222851    8.96250180193332
C        13.83822593505824   10.09778613098968    9.57889058167304
C        14.13370474299838    8.94464881510835    8.85870218398503
H        13.35371376592488    8.45795931688195    8.28885806126724
C        15.41444008672484    8.42172256138768    8.87452357685707
H        15.63342908222083    7.52081764139092    8.31934574633667
C        16.41738473704048    9.05267093985802    9.59227907328977
H        17.41706146568639    8.64386397389716    9.60061594969081
C        16.13667205821864   10.21351043311019   10.29537627623814
H        16.91832030532337   10.71234981611975   10.85071496817051
C        14.85742351317149   10.73612685535180   10.28403736241407
H        14.63773615366218   11.64224445173787   10.83580212538025
C        11.79141191403573   11.14494890450797   11.22773074671681
C        12.45473389048309   10.54637815878593   12.29297404569584
H        13.31875399326648    9.92066732412352   12.12074459814213
C        12.01263455168236   10.75369431862163   13.58797710510257
H        12.53714860181142   10.28818557939521   14.41034327679061
C        10.90498925083730   11.54701718436701   13.83539506803614
H        10.56854030956071   11.70538520519122   14.84943943034379
C        10.22888086244814   12.13200867554241   12.77724391949263
H         9.35916413894619   12.74732740982533   12.95624708041847
C        10.67140191722911   11.92877547464493   11.48530816188341
H        10.14991640632850   12.38390136354625   10.65339037840842
C        10.07707603853605   15.38140811631503    7.23570831069270
C        10.77269649320985   16.57967855574298    7.09541016259070
H        11.57266744120052   16.82431971393189    7.78242137721830
C        10.44068327702037   17.46365777691015    6.08428361449704
H        10.98137232655094   18.39463250754589    5.98744166522032
C         9.42446433770913   17.15519380140946    5.19543803925602
H         9.16744900211064   17.84743141933410    4.40719402908660
C         8.74535118474160   15.95275013358381    5.31500736564755
H         7.96039848981075   15.70309658172578    4.61632519248333
C         9.07294626848663   15.06726870660051    6.32380091957352
H         8.55443326248321   14.12185085787897    6.40697816277685
C        11.05987042469622   15.16408464047791    9.88749019940818
C        12.05249310573317   14.66327951719603   10.72267064441170
H        12.52480541307350   13.72249408364812   10.46573723480946
C        12.43564030683343   15.35131839461626   11.85851119304843
H        13.20249561368857   14.94660882021678   12.50306688310185
C        11.83298088226998   16.55931176760070   12.16672154159985
H        12.12643072650308   17.10115161673697   13.05380708488541
C        10.85950951311824   17.07871544655436   11.32850057370787
H        10.39835245211845   18.02806854765689   11.56086763033872
C        10.47290914278638   16.38938239143185   10.19315265694180
H         9.72706667763129   16.81424152878537    9.53522061168260
C        12.19768251697462   12.45692689616394    5.43236427972922
H        11.25211138533642   12.34671975592765    4.90471830313156
C        12.75768561285810   11.28120629729613    5.98169121380150
H        12.21081495804961   10.35406688018064    5.79824041971585
C        14.25088951456100   11.04858604416449    6.08370090121143
H        14.66032363960045   10.91595817442665    5.07429120078551
H        14.41309617435324   10.11092735706091    6.61889371210646
C        15.00638202007283   12.17248623068582    6.81525849669630
H        15.82033391463815   11.72859185273827    7.39370815875015
H        15.45693622664711   12.85582449417120    6.09090434710355
C        14.14069314280017   12.98527570470888    7.75253341052968
H        14.42181450169876   12.91532772150019    8.80121542802039
C        13.45275206306530   14.11071071920328    7.35674751172509
H        13.26283035726673   14.87635086577177    8.11066401057057
C        13.41561182065960   14.63852748792659    5.94197522942093
H        14.38932865730119   15.09225044471986    5.71705459487966
H        12.67041182700394   15.43541062334526    5.89487067094056
C        13.06705480286477   13.57607058335689    4.88858136306686
H        12.54079736584087   14.06475338866821    4.06560025571090
H        13.97841357113273   13.13862068787113    4.47336151778619

