73
CSD_code = ZOSHAS | q = 0 | S = 0 | Stoichiometry = C38H28ClO2P2RhSi | MND = 5
Rh        8.09906906194902    1.62185594127899   12.76450091059324
Cl       10.40577483016180   -0.20653370280758   10.01930962864787
P         6.20061512607125    2.16878715241611   11.41688371295927
P         9.24004214494827    3.70907404791062   12.68698418371073
Si        9.10894550974595    1.31669139681175   10.65839503025104
O         9.01879926267454   -1.10828559207395   13.70513991464695
O         6.68016210660773    2.23169614453205   15.35232403684704
C         7.74478475556370    1.30202216765726    9.29771000366846
C         7.95245964560550    0.90647510462189    7.98407376823494
H         8.93141375625061    0.56266472805009    7.68632082115115
C         6.91712168781533    0.92560190042180    7.06644521915976
H         7.09206910774367    0.60899728602132    6.04835906820928
C         5.65164844000153    1.34241731313670    7.45141607829337
H         4.84178332938684    1.35122993122316    6.73621515375479
C         5.42261159095600    1.73439903220725    8.75693432043738
H         4.43432886461324    2.04641485748422    9.06740865007231
C         6.46852537038730    1.71474885255651    9.67398596724109
C        10.12024694940018    2.89622228846372   10.20229033004166
C        10.84478404174197    3.03339700191599    9.02610586499222
H        10.84386679601760    2.22610692662231    8.30951386996423
C        11.57598343187154    4.18006454437633    8.77390528024554
H        12.13550848413676    4.27274607573313    7.85427703103157
C        11.60280014990784    5.20809505881019    9.70466389811644
H        12.18561837614913    6.09778085375403    9.51409596645609
C        10.89198319138772    5.08923020019859   10.88360710270628
H        10.92260770984175    5.88120223037121   11.61955343565323
C        10.14372221715420    3.94077079588998   11.12350357707466
C         4.68904633618184    1.19698833178635   11.75022838434476
C         4.88433553372777   -0.12910007350147   12.12527015410876
H         5.89936833477339   -0.49329239665511   12.25448008911033
C         3.80400176249580   -0.96368132664884   12.33584854439998
H         3.96382745721111   -1.99166174344558   12.62585681163480
C         2.51594474478151   -0.47658347919920   12.17957193737873
H         1.66830000902669   -1.12370671755047   12.34970217727168
C         2.31585988660520    0.84243000504302   11.80847886390216
H         1.31197095595332    1.22333648641200   11.68748376353460
C         3.39539812383933    1.67993229160858   11.58796359937939
H         3.22782720685360    2.70887354200380   11.30128709481434
C         5.52406978609935    3.85559175455116   11.31113922702129
C         4.93848080166102    4.37341567129085   12.46522259604580
H         4.90077213843428    3.76067761589298   13.35806561568705
C         4.39871007500677    5.64346101515100   12.46262985636361
H         3.93357490943376    6.03489894820525   13.35539594839316
C         4.45348475290628    6.41423715368749   11.31127997863383
H         4.02155719427215    7.40405391456366   11.30460522106760
C         5.07027181360419    5.91944230349162   10.17514916243373
H         5.12721814985005    6.52639648065115    9.28302912834002
C         5.61465973909341    4.64689349119603   10.17325272512909
H         6.10114669807900    4.26410815327733    9.28682586905075
C        10.64271694116675    3.90110786817077   13.84393660071671
C        11.35004962525270    2.74507740716877   14.15923286504652
H        11.00449818190592    1.79382977931416   13.76540901120499
C        12.46851697609761    2.80828479402336   14.96792725880529
H        13.01222172250303    1.90672289117116   15.20857290198678
C        12.88646482284626    4.02916571446007   15.47281579031464
H        13.75654681514897    4.08193898149041   16.11034835219026
C        12.18513739601913    5.18254602542464   15.16269639381829
H        12.50941942349789    6.13469856752277   15.55734518194229
C        11.06912738400861    5.12540358429174   14.34687918608083
H        10.52525673775640    6.03091283196883   14.11598243355256
C         8.35488235487420    5.28095312403812   12.92615450821654
C         7.88862775331996    5.55465516100264   14.21088739943513
H         8.09818510876988    4.85224471223663   15.00884895835041
C         7.18385719430169    6.71426604387726   14.46450502073114
H         6.83434157777638    6.92625867968201   15.46447728580674
C         6.93072123044001    7.60720042902841   13.43468124062266
H         6.38911387976023    8.52024211011352   13.63303881812752
C         7.36446022008113    7.32428883016401   12.15096575701539
H         7.15809429521596    8.01490965915512   11.34650544429237
C         8.06376122087810    6.15914159323838   11.89007248934639
H         8.39040884589432    5.93480272338052   10.88432129094396
C         8.68651753116227   -0.07914823026782   13.31536858044337
C         7.23077041330734    1.99611275994252   14.37433765879839

