111
CSD_code = ZOSJOJ | q = 0 | S = 0 | Stoichiometry = C51H49BFeN6O3 | MND = 5
Fe       18.02954662816464    6.33443060553371   13.26935578028115
H        20.24395821055152    9.31633920954954   15.34987359999109
C        15.13456468933684    9.31942108102986   12.22047856079173
H        16.14701022888833    8.97047346829661   12.02296922960781
H        15.19789210787732   10.18603036483475   12.87877056438423
H        14.67036081751266    9.61795082265733   11.28420322327128
B        19.63245493399442    8.47873043939491   14.78387592060490
N        17.26155998441864    7.81117806690424   14.37086891716698
O        16.80881969121557    4.96338282479401   13.90246521609805
O        16.64821509155285    6.48156210602766   11.81142383802181
C        14.35336922199892    8.22047559113102   12.87311928795303
N        18.12492412570981    8.61343344294341   15.00703855002227
O        13.82686029915231    4.30096393018275   11.23555344059982
C        13.19299492636190    7.72644738333928   12.30170624330939
H        12.84658464633891    8.13736031692624   11.36372284993463
N        19.21027797907418    7.65342942808854   12.49069479163110
N        19.42292631018890    6.01545388094275   14.68184512638689
C        11.23168913284861    6.17401061931733   12.24250930239157
H        11.44146648847504    5.91153938087312   11.20666342632332
H        10.44891989918889    6.93265922755805   12.24222136164721
H        10.86112260026517    5.29303065064272   12.76161883164340
C        13.44553129855519    5.60119453520810    8.91554818959796
H        12.91025799603996    4.69096435280985    9.13861205366209
N        19.86341135044092    8.51721539762914   13.27029469515824
C        12.46999232454147    6.70221154284406   12.90115653283066
N        20.02784575182349    7.07375076774441   15.23160609107423
C        12.91872364675139    6.18753125216898   14.10690322704932
H        12.36371074708490    5.39300934783647   14.58762991801771
C        14.80348984181375    7.66917782230554   14.07520233825041
C        14.55448530083460    6.10659842580223   16.01294169633582
H        13.91319796984122    5.29479055329592   16.34755690958235
H        14.56887107258616    6.88420715318623   16.77625973274306
H        15.57013752235119    5.73362644937415   15.89765411302888
C        14.07697546935468    6.66253088703511   14.70698266846952
C        16.03149865397014    8.21680737834927   14.67468598743841
C        17.45695906847484    9.52217715885658   15.73137755397914
H        17.97275443501328   10.25626267791402   16.31705635128771
C        16.10928909731564    9.30824745151505   15.55286683937103
H        15.28999499778385    9.85137037350615   15.97820260351538
C        19.51596865080375    4.94987756904760   11.19029430023741
H        19.78590709712964    3.95873692985103   10.83151931726918
H        18.79131382351370    4.80565237595989   12.00901340511845
H        20.40237605120966    5.43411213272118   11.59423774413503
C        18.92787124437171    5.76385217550463   10.07675843593481
C        18.32984223028095    5.10918187497191    9.01085669986320
H        18.26510536438402    4.02952032003802    9.02737183429406
C        17.12491919592428    5.09773499617599    6.80313635338997
H        17.40901129471662    5.52697683674015    5.84428803632818
H        16.04541625268001    5.20746718718948    6.91289790848112
H        17.36334715931331    4.03693299875868    6.80049144451137
C        17.81418153493892    5.80410118604799    7.92950851717126
C        17.92392093149614    7.18588944189725    7.92826471559010
H        17.53862506972799    7.73980770184578    7.08405127869617
C        18.48597702509020    7.87641880059262    8.99019845844772
C        18.50340118672730    9.37661419823448    8.94358070737631
H        19.45837173001891    9.73874617462104    8.56319373477268
H        18.34785534501070    9.80191204305616    9.93189810642964
H        17.72419981420263    9.73989717881730    8.27762867249400
C        18.99358172853825    7.16138747900675   10.08280999178901
C        19.56710363389569    7.88149205367933   11.22375813564592
C        20.51090224940137    8.92322457581308   11.20764465675145
H        21.02081240290687    9.32430444470565   10.35676484109795
C        20.66540919929378    9.29098057026312   12.52482223578927
H        21.28283650421779   10.04598575570806   12.96793909259291
C        17.80275297447757    3.82982133187598   16.70529902831631
H        17.42510729086501    4.75562916652395   16.27657307040727
H        18.53278070047402    4.09195930284805   17.47106802884405
H        16.98642583369617    3.28740548887543   17.17693553314271
C        18.45178112730630    3.01248115671159   15.63126349628918
C        18.03238851940302    1.72331796267348   15.35022313676529
H        17.20329646178565    1.29928136113985   15.89968565245901
C        18.65901025128388    0.95589177387221   14.37750685509168
C        18.18263976343423   -0.43424465698638   14.07992858115650
H        18.38823674738417   -0.70131820687057   13.04572557616755
H        17.11381435145246   -0.52260598462474   14.26141001876851
H        18.69636018741267   -1.15136302891628   14.72155722258724
C        19.76083587477071    1.48407596955441   13.72366382935190
H        20.28466313598667    0.88236142255387   12.99337300226383
C        20.21682333804599    2.76732195362207   13.99451206653061
C        21.47992010361412    3.26141888215838   13.35219200370091
H        21.58158528755390    2.87915333012215   12.33919215928803
H        22.33672840600966    2.90841866190207   13.92839660706274
H        21.51651277079191    4.34692683081295   13.33377972480156
C        19.52684064344444    3.54916563089149   14.91825963598629
C        19.95861822684263    4.92186772990689   15.22446180582752
C        20.94318232970976    5.29762630801128   16.14885353677568
H        21.54953958408296    4.64537384992709   16.74338791061643
C        20.94857715786148    6.67423294420167   16.11803176335396
H        21.54098341415071    7.38118826991880   16.66267688506138
C        14.81819104405978    2.91419003962020   14.47288184213994
H        15.58857917769611    3.05981672128180   15.21040748413267
C        13.83062637715241    1.97540277695192   14.63226092992086
H        13.80415977811500    1.35610893607173   15.51651667547894
C        12.84897155699738    1.81754753347956   13.65092938761040
H        12.07310746352394    1.07825876438559   13.78332904399743
C        12.86039261449170    2.59769511618353   12.51923995442919
H        12.10834849488071    2.49018550085406   11.75327263933751
C        13.85901844727597    3.56320054743760   12.34752231047096
C        14.85106598046393    3.72620536586927   13.33009816121491
C        15.84398220313326    4.73547751708413   13.11185657369871
C        15.74380052484294    5.56516264445822   11.92065579404831
C        14.71800620835125    5.31405317621495   11.01415963056368
C        14.44934559353880    6.04186510792583    9.78900280556090
C        15.14054121963140    7.21372870454316    9.47006060493250
H        15.92523241448883    7.54522220991255   10.12584159844272
C        14.81163423671636    7.93185533918050    8.33850747448838
H        15.33494575348804    8.85132206648720    8.12089648774267
C        13.81431811903508    7.49042093365116    7.48375576918531
H        13.56416782338902    8.05423453683441    6.59667565913697
C        13.13925877801805    6.31516722614804    7.77576262256334
H        12.36610043140632    5.95730841508340    7.11026523264543

