111
CSD_code = ZOSJUP | q = 0 | S = 0 | Stoichiometry = C51H49BN6NiO3 | MND = 5
Ni        4.49822053187832    3.74573441874766    3.95811092712504
B         1.80777890197485    3.47710097156491    2.45285899254436
H         0.77793139450284    3.23244032514630    1.92625092748380
O         6.29436176366145    4.04732555662748    3.39968215617080
O         4.92380817673266    4.91775642189768    5.40215750683545
O         8.06577346640269    6.58346623532326    6.00849582822947
N         3.35639283818851    5.37605187814712    2.81517451651010
N         2.19091968470002    4.95111051497648    2.31366021776371
N         2.83759829808715    3.28530051482142    4.74123262449540
N         1.76627112035213    3.14006645133945    3.95558261800628
N         4.13593806682359    2.52584652640468    2.50097856676275
N         2.95162228662530    2.62832611528525    1.88348531996422
C         3.06497360902252    8.26880550615901    5.02329531823650
H         2.34393875016961    8.82505038438185    4.42425565513683
H         3.15414171662665    8.74674217586515    5.99556281702323
H         2.67903015377433    7.25990729286397    5.15741992367606
C         4.39428164174461    8.22278479471537    4.33219904838175
C         5.48160771352355    8.91408935081396    4.84076616753474
H         5.36713729723515    9.48687157844490    5.75093136239795
C         6.72013440695646    8.87821830219819    4.21380317972951
C         7.87534337803457    9.64178973582275    4.78882319885160
H         7.97620832893086    9.43015013997522    5.85219643869410
H         7.71164637392710   10.71372675639193    4.67598728867786
H         8.80365101658322    9.37957772118315    4.28616686096203
C         6.85749184455490    8.12980614997716    3.05499728631103
H         7.81788979197429    8.08944325975386    2.55742703640655
C         5.78983031766548    7.41949968351102    2.52503313304268
C         5.94881143096716    6.60848455754549    1.27503476567995
H         5.31471264063446    7.00332364581081    0.48085153876186
H         5.63929999959820    5.58192144408634    1.46660720269704
H         6.98280950928736    6.61315389808934    0.93707365624163
C         4.55283110260672    7.46996051561996    3.16712119518589
C         3.41337153902302    6.69216995706680    2.65393330512694
C         2.24668986219252    7.13338112971977    2.01029743173281
H         1.99880030500308    8.13654274794296    1.72815870771189
C         1.50273211924398    5.99067404732831    1.81549729769296
H         0.54085600939246    5.85559860929791    1.36269838254567
C         5.02049558509169    1.57795760462389    6.23789168845799
H         4.22887214218262    0.85107921408632    6.06244939279753
H         5.92073828369137    1.05659154821513    6.55456294141094
H         5.24193291975703    2.08522987044531    5.28117326540254
C         4.58806455065531    2.57266213621589    7.27118175798877
C         5.41508563667969    2.85039231071761    8.34815921638324
H         6.38143205908518    2.36793823638193    8.40656153875021
C         5.03515588496795    3.73504354420041    9.34409727904334
C         5.95225246630162    4.07907036167119   10.47766376674662
H         6.78919881299296    3.38697950499424   10.52949606945350
H         5.41882836464817    4.05955313484300   11.42634239136111
H         6.34509869379599    5.08652550126603   10.33579126347331
C         3.78270383702323    4.32232069570310    9.25717541479584
H         3.46788438522552    5.00064941012330   10.03751607616356
C         2.93811181291540    4.08513911411812    8.18431116030970
C         1.61591416182653    4.79397163893338    8.13156986168607
H         1.40132224108653    5.14850465222322    7.12601631096175
H         1.61659762179997    5.64190671962694    8.81176834201326
H         0.80906192453930    4.12746167643376    8.43430858480446
C         3.34949551609247    3.21281530634807    7.16949565072416
C         2.47633055234915    3.02148126166002    6.00138764004193
C         1.12233775510094    2.65605039624178    6.00398823641239
H         0.53647597289733    2.35041490900982    6.84572212311553
C         0.71988188226515    2.74840715844076    4.69079428213981
H        -0.23634630352837    2.56760171631908    4.24305722994808
C         7.12588787183722    2.86440382558229    0.42855654810900
H         8.06968138781389    3.22759612457114    0.02711552874773
H         6.55403699850870    3.70518463193490    0.81562034615554
H         6.55310619731199    2.42197039468577   -0.38593161280350
C         7.35070370142696    1.85592669685366    1.51418299319899
C         8.62969507728414    1.47145221765249    1.87960048474331
H         9.48245199731654    1.92000570994660    1.38794312618859
C         8.84515358100713    0.51546696160502    2.86382806560854
C        10.24187073641991    0.15498256377587    3.27168685641691
H        10.25748247147543   -0.77749019194237    3.83106015827595
H        10.65884268758094    0.94075823227454    3.90303353605673
H        10.88463375445333    0.05272235974422    2.39899958292235
C         7.74672587077136   -0.09467501481556    3.44720663509675
H         7.89791304360316   -0.87106697333436    4.18463730639450
C         6.45122932563787    0.26016270077729    3.09671387595407
C         5.28500527142429   -0.50496499336633    3.64940233072819
H         5.02716233842316   -1.31052874424784    2.95944259260512
H         4.40957885060388    0.12879901541671    3.76032664631603
H         5.53147712478457   -0.95090746406112    4.60952469207586
C         6.25712207917674    1.27466412011763    2.16059679774318
C         4.89254851803438    1.68381025130180    1.79162471977636
C         4.16407916605389    1.23683502484160    0.68449511111775
H         4.49273331239775    0.54723576029608   -0.06582003554504
C         2.94180354471003    1.86320864612820    0.78855841330371
H         2.07689075620303    1.80828779321908    0.15907305023291
C         9.03774066008195    4.90059599619598    2.90741232051970
H         8.61016745589810    4.22172197946071    2.18981148406464
C        10.31796671415598    5.37361013282691    2.78308150733209
H        10.93098995320575    5.07608509916267    1.94569996252097
C        10.83942982351382    6.24812007447372    3.74229747556719
H        11.84803160184510    6.61857496473738    3.63515913200798
C        10.08124841730743    6.64054872679603    4.81715525713446
H        10.46824237548777    7.31434261252499    5.56548071851931
C         8.76868410820048    6.16838673306750    4.95432893793671
C         8.23849255180111    5.29004586499545    3.99298487301244
C         6.88914792225135    4.84696046427322    4.18086569813691
C         6.14520111084704    5.34531440195790    5.31454570913177
C         6.76818597953048    6.21943910326509    6.20045992919458
C         6.16153223722627    6.85892286625430    7.35341601104055
C         4.78169277816362    6.81649294167303    7.56174755193478
H         4.17174964858299    6.25463109804232    6.87635568064316
C         4.21858170305763    7.49823354562962    8.62189982257227
H         3.14710231257118    7.48455496783246    8.75613444644437
C         5.01181164579955    8.20717762054012    9.50923807562180
H         4.56526548320163    8.73637703465406   10.33864794178317
C         6.38569156592954    8.23391314797870    9.32612239440719
H         7.01252487061503    8.77840349676658   10.01821423220753
C         6.95646832795172    7.57441482949471    8.25745619023840
H         8.02607094044883    7.60484571076264    8.11521701387119

