85
CSD_code = ZOSKIE | q = 0 | S = 0 | Stoichiometry = C36H40BBrN6Ni | MND = 4
Br        4.67832255245522   -0.22781946831558    3.21380439687038
Ni        3.66243032148952    1.71039498481331    3.42404518577826
N         3.20784227035777    3.55070834649996    3.47117837101263
N         2.01178202171479    3.94532029983621    3.89784784598920
N         1.54102185490748    1.31649575140414    2.72305478703774
N         0.62796090024875    1.94193946050010    3.48534324343138
N         3.14772208310186    1.64062054493789    5.26404732022461
N         1.95911556960403    2.17233751830028    5.58287536834004
B         1.07091554472758    2.92422543775145    4.56713523796616
H         0.15642821496153    3.44960710352371    5.09916000435970
C         4.48126530297302    2.67824961012122    0.88318084847143
H         4.87999781515554    2.05948325935900    0.08288357168723
H         3.67125388967581    3.29402368188310    0.49290625788352
H         4.03394234899594    1.97925315054769    1.62786734943081
C         5.55113375398012    3.52981188395097    1.49491401303142
C         6.86599145587216    3.38767195008437    1.08420938470579
H         7.10859353196408    2.64333403054961    0.33943743030873
C         7.87913038693360    4.17367626235547    1.61629446679121
C         9.29163997278906    3.99894314349316    1.15065229783865
H         9.56173029183135    2.94468653479910    1.14191310457150
H         9.98462295491165    4.53544771524337    1.79379884445468
H         9.40090561816808    4.37921933196150    0.13486114732150
C         7.54855969105719    5.11894766738291    2.57421350597278
H         8.32701383834364    5.73564900491817    3.00141405797322
C         6.24319418074661    5.28783014853310    3.01378759773593
C         5.94990295777479    6.30762604101607    4.07393132882563
H         5.60259861483957    7.23617200026941    3.62084194225693
H         6.84891483468229    6.52972789986575    4.64403073122037
H         5.17851285346541    5.95817741574011    4.75668173773808
C         5.23483636842084    4.48810570085997    2.46898139437146
C         3.85615419499188    4.60006415269087    2.96194343396562
C         3.01808783782779    5.71818640324258    3.06059609441486
H         3.22656584581426    6.71379822174155    2.72793718571640
C         1.86305780973044    5.25155717616440    3.65496996730230
H         0.96215293998237    5.76755454653472    3.91859645772351
C         1.59267310681194   -2.15500105821845    2.51112473905384
H         0.51076897467722   -2.14741152221518    2.64393416690815
H         2.03338885000927   -1.56387764359064    3.31153233540499
H         1.95433827600489   -3.17533256268550    2.60071530506414
C         1.96317015010540   -1.57653448889867    1.18023024620877
C         2.66683559869402   -2.32016977292309    0.24931491616758
H         2.96599684827844   -3.32858414738403    0.49564881046957
C         3.00933361890973   -1.79374275636691   -0.98941918755054
C         3.79589710430060   -2.61745566959880   -1.96410149934188
H         3.32925909998880   -3.59088766534321   -2.10643794143773
H         4.80275475011390   -2.78377287830818   -1.58199000936413
H         3.86909317178607   -2.12006949637689   -2.92833344240839
C         2.61656194917129   -0.50100604690833   -1.29546852115565
H         2.86505700611615   -0.08085392860050   -2.26089357207822
C         1.91079078900413    0.27258090687772   -0.38463997521635
C         1.45726913466334    1.65415028013807   -0.75967735194629
H         2.11187781986944    2.08570263658280   -1.51402532178073
H         1.42991500309334    2.30951568361478    0.10791227462112
H         0.44825193137007    1.61157185086331   -1.17276850255821
C         1.59655096568578   -0.26704023791563    0.86075971821405
C         0.88583260910112    0.54948631867385    1.85739073978533
C        -0.49377670081933    0.68146265542787    2.06765654467838
H        -1.27970772476056    0.19305665027684    1.52905011530601
C        -0.60608763103557    1.57446006918224    3.10929383520437
H        -1.47354176412925    1.96684526408864    3.60097359767176
C         6.06283510208845    2.58382977778088    5.45976369026201
H         7.04039051154463    3.05517540433454    5.39568053336174
H         5.40151023948226    3.21651204016367    6.05133599542489
H         5.66158811673828    2.52120176852797    4.43436266726500
C         6.16746119185864    1.20410663270467    6.03838809560479
C         7.40789045757006    0.60146957081185    6.15723266350793
H         8.28906839490415    1.14776853910073    5.85152977100081
C         7.54300808639224   -0.69011008513645    6.64466549916830
C         8.89056730723800   -1.33728665852418    6.73621720156908
H         9.10113348493514   -1.87445497019699    5.81126361442460
H         8.92427703474348   -2.05163862489918    7.55565185731875
H         9.67126576055807   -0.59398790634730    6.88059937415862
C         6.39855521846798   -1.38275352299512    7.00690039297544
H         6.48618518839898   -2.39791800935718    7.36700246329265
C         5.14018659951813   -0.81118308492101    6.90618615296022
C         3.93043742551190   -1.61569097276766    7.27774120611284
H         3.10168358630693   -1.40188501468140    6.60711634660201
H         3.61255928104265   -1.38872191398301    8.29535799919675
H         4.15635246785864   -2.67748058947327    7.22346292227174
C         5.02416089674187    0.49759843082501    6.42885840933974
C         3.70136204597655    1.13173313987615    6.36742894692850
C         2.82019810018997    1.34443000529838    7.43595841388841
H         2.97364357180808    1.06885632287030    8.45833575775390
C         1.74166847693053    2.00439179216940    6.89151257994614
H         0.84210789167461    2.36001857592284    7.35172951303747

