77
CSD_code = ZOSMIG | q = 0 | S = 0 | Stoichiometry = C32H40ClN2PZn | MND = 4
Zn        3.13809909729939    5.61885955677961   12.63500098377185
Cl        3.59495587873845    7.68100172442687   13.16424938085752
P         3.26081310651896    4.47680033473926   14.91930148047412
N         1.55956364875515    5.22774216753401   11.58018653820750
N         4.38056082761621    4.28665577158258   11.91681042178913
C         0.33262526564267    3.87806436864966    9.93850733287283
H         0.05110947440579    2.84405688116223   10.13269629969906
H         0.53791788350234    3.97354598760627    8.87347707002598
H        -0.49979530348050    4.52707376310880   10.19635067332990
C         1.57000346578264    4.22090437547435   10.73325027500954
C         2.67538178493297    3.40766968916262   10.48371326567808
H         2.49439678747408    2.63857324048262    9.74602704475357
C         3.98186320310847    3.45933001278868   10.97131095538895
C         4.95386973227988    2.48128283569794   10.35224914448833
H         5.84823000987520    2.99897585070713   10.00951708472195
H         4.50016066649062    1.97662829718339    9.50476180062227
H         5.25549415289194    1.72297680369662   11.07594799989475
C         5.74586649276594    4.23971825941398   12.39638704678189
H         6.14353990457380    3.21847816519227   12.35470071123042
H         6.38267795128205    4.87535272122381   11.76520294079365
C         3.32663512788967    5.31381792015472   16.53792681843697
C         3.75003136886578    4.65463522922992   17.69016429084641
H         4.03595601595843    3.61183302664967   17.64506627180639
C         3.80149433506624    5.33114772647049   18.89405826155145
H         4.12574229139759    4.81518019177618   19.78643815668452
C         3.44132103197634    6.66865220400035   18.95731124069753
H         3.48568804419727    7.19283854066302   19.90058875108256
C         3.03393616206514    7.33107856086938   17.81231200837503
H         2.76499501193570    8.37568059520231   17.85645364987177
C         2.97449277962327    6.65706929410550   16.60456533645469
H         2.67890349180599    7.17704204657651   15.70410026696088
C         2.35908378707123    2.92238869849172   15.22427160756301
C         1.63105152479862    2.64864914811018   16.37562238725843
H         1.62704490840228    3.35279728030988   17.19502142406565
C         0.90601875229384    1.47301198609132   16.47328217926845
H         0.34770735364832    1.26340364604210   17.37426350638983
C         0.88563825109120    0.57338444750769   15.42138113452283
H         0.31468873851235   -0.33977685065366   15.50149809461981
C         1.58738011193108    0.85439962238620   14.25932455202919
H         1.55852671533089    0.16420250257420   13.42887710178415
C         2.31394194743457    2.02458017077277   14.15878247888599
H         2.83801785312073    2.26280742293821   13.24209146084218
C         0.43496281709490    6.08718293778704   11.66562595499365
C        -0.52364019370723    5.87717214297175   12.66394608191416
C        -1.59910470926390    6.74919932605575   12.75482181052343
H        -2.35122571496456    6.59182565900174   13.51351012133642
C        -1.72479897267358    7.81518308724821   11.88588811950915
H        -2.56753938287049    8.48584476971352   11.96872390758019
C        -0.76645152170225    8.02250769273743   10.91308328828766
H        -0.86718244741388    8.86186155965109   10.24184231583884
C         0.31938856666767    7.16898173810996   10.78161125433262
C         1.35024827681270    7.42771564057821    9.70702726598477
H         2.12001011195698    6.65034693699379    9.76152318964625
C         0.71543207936442    7.37091762221839    8.31518110214279
H         0.20225799783521    6.42359524077393    8.16399063546656
H         1.48267002515692    7.47463297693655    7.55062890627480
H        -0.00603502191513    8.17397204535989    8.18500535876829
C         2.03413437036077    8.77735306003969    9.93501177999081
H         1.32031803865028    9.59464878098589    9.86575662481697
H         2.81034363570518    8.93351043085294    9.18850398907656
H         2.49247413430114    8.80360591477941   10.92018510570099
C        -0.40458414488112    4.72223529072271   13.63156186564365
H         0.52527113814770    4.18222025496437   13.41923581825467
C        -0.33411168474389    5.23355371816666   15.07049179850370
H         0.53319774900955    5.88031842307653   15.19509276877358
H        -0.24678786026739    4.39708637409746   15.76054519481552
H        -1.22458666882539    5.80063159248249   15.32926129972833
C        -1.56347154956376    3.73786742620593   13.46286669730870
H        -2.51279128263822    4.21103086765906   13.70216065737591
H        -1.42517425638468    2.88496958472990   14.12495184283278
H        -1.61004556216343    3.37507793634232   12.43855217190886
C         5.00786402786204    3.85020981972431   14.78551272616849
H         5.44222374824954    3.85409700911299   15.78879999239178
H         4.98196562809335    2.81830524189143   14.42483341781546
C         5.84464643156170    4.71932289631608   13.84395274378387
H         5.52421240520106    5.76233170966819   13.91276929406857
H         6.89548015707068    4.67647007516101   14.14019546805340

