40
CSD_code = ZOSMOL | q = 0 | S = 0 | Stoichiometry = C21H12ClN2O3Re | MND = 6
Re        5.29562966123415   10.51838523325242   27.01285740120656
Cl        6.43948532702651   12.59833815087764   27.21572859824865
C         4.40113281457065   11.18000683142680   25.41091212043719
O         3.89850800334758   11.67258253962397   24.50855032417460
C         6.75523989729682    9.82947428761706   25.91814406649585
O         7.67797284274052    9.49715025440086   25.32836596508013
C         4.32561923956576    8.83662602898296   27.04806361922846
O         3.74296350180683    7.84694557019652   27.10097827330754
C        10.36307226718910    8.22983314332187   30.46415846192946
C         9.32938826628572    8.84732980292714   30.35755644457482
C         8.13770286137058    9.58301384861644   30.24317959207399
C         7.37490845929115    9.52293804839454   29.07444050410733
H         7.69974147461407    8.89304022841360   28.25581820015254
N         6.25694841821862   10.20877900905057   28.89760997216265
C         5.80673260568955   10.99576353431920   29.89506631613523
C         6.50698537459827   11.10366609760909   31.09877414524104
H         6.14317194156289   11.74176659906587   31.88709569784470
C         7.68035947998845   10.40672230996003   31.27790224525283
H         8.24398386857681   10.49079020155232   32.19460280400192
C         4.55328911897158   11.70512561845271   29.62770862316976
N         4.00731512484137   11.48786476588342   28.41631067142308
C         2.85759062955637   12.08372318078881   28.11702738685976
H         2.44816509074450   11.87211097887801   27.13749382667722
C         2.19664350177328   12.93494581479765   28.98313349382715
H         1.27212803107630   13.40038458776434   28.68267233780232
C         2.75669857828412   13.17895092743286   30.22821584536192
H         2.28039794477554   13.84633857329284   30.92998896641427
C         3.94140723808210   12.54929760196441   30.55497322741029
H         4.39201697156728   12.72374573695665   31.51789897155749
C        11.56803693773412    7.50938164427068   30.58456333224850
C        12.02764799290732    6.72742060029273   29.52217551651215
H        11.45045937755908    6.67858616040314   28.61068108954822
C        13.21232939289929    6.02866247421619   29.64564490694566
H        13.56701035665125    5.42527880650586   28.82322035786271
C        13.94670281791623    6.10007103215878   30.81954531641012
H        14.87276824014684    5.55236122430042   30.91079291673281
C        13.49395294993330    6.87483745798101   31.87647136011200
H        14.06747587157342    6.93003513747701   32.79005123377014
C        12.31107218903845    7.57849650782023   31.76552144296859
H        11.95214533899506    8.18532944875286   32.58400442473246

