52
CSD_code = ZOSRAD | q = 0 | S = 0 | Stoichiometry = C27H21ClN2Pd | MND = 4
Pd        1.25583136479917    4.21915783499663   11.65438014510984
Cl       -0.67855967861902    4.84703214689485   12.48078726997336
C         1.98984964354915    4.37723601087106   13.56983151651473
H         1.41602484334865    3.68963636176299   14.20146071221018
H         3.04808859207104    4.08842783088096   13.57567493340472
H         1.88066995148588    5.38791406222305   13.97095163908540
N         0.69469658412517    3.23502264412100    9.77844983751323
C        -0.55964593071538    2.64587388254440    9.68467326015344
C        -1.09278019331184    2.04500193046097   10.82965511781578
H        -0.47811632417026    1.98642729677629   11.72975201389637
C        -2.37486192724946    1.53506251929763   10.80246255774871
H        -2.78326284749623    1.07100451788914   11.68759582326460
C        -3.14005384934487    1.62834848556487    9.64979351766347
H        -4.14645475337522    1.23837108068093    9.63634194261448
C        -2.61588645370848    2.23235011984111    8.51866784656082
H        -3.21334510881303    2.31461701091784    7.62265299287134
C        -1.32986694162820    2.73713358480746    8.52537431977097
H        -0.91764714526413    3.22126408369571    7.65139282150665
N         2.97730709227927    4.19148169284500   10.61949646336212
C         4.05434517896975    4.91952956121507   11.13045654811534
C         3.80794882934028    6.18292932030060   11.67765113359109
H         2.79224435077257    6.58194771830453   11.64442865890656
C         4.84363277740927    6.90352930906963   12.23697367440843
H         4.65179454394834    7.88222067366591   12.65042527511240
C         6.12483463728475    6.37240546428362   12.27369865997508
H         6.93020763649110    6.93545868939385   12.71976130461617
C         6.36683259228159    5.11591997131321   11.74477981531914
H         7.36114728189357    4.69645983368079   11.77920978398038
C         5.34191092263465    4.38806226323969   11.16869261976019
H         5.52285784667535    3.40536293451929   10.75773435884758
C         1.74550382468441    2.95736098886196    9.06482850609643
C         1.92859300280133    1.89797515127534    8.08584374669208
C         1.13655639735284    0.74733012058331    8.08859882724059
H         0.34758891096991    0.64241963454099    8.81614911562469
C         1.37750885517945   -0.27762603635142    7.19876807639658
H         0.75972282010538   -1.16238400657445    7.21861987290922
C         2.42634436376929   -0.17579503656652    6.29656837872092
H         2.62667866543869   -0.98122803089686    5.60592927484557
C         3.22827317283650    0.94707124798353    6.29264619087744
H         4.06156697719418    0.98712697247518    5.60890857495604
C         2.99976740980676    2.00517413966703    7.17317949543080
C         3.82610555407571    3.20754204189648    7.16739271725235
C         4.63525008107454    3.53482129195253    6.07890640467901
H         4.64159142075604    2.90108736401894    5.20619291546556
C         5.40811094577419    4.67760107728176    6.07484789226283
H         6.02302491498532    4.90829713248992    5.21796261175031
C         5.37289616242800    5.54075617685502    7.16011541630907
H         5.95226527425261    6.45132618024516    7.15116551656164
C         4.57686964079684    5.24664666134967    8.24607146816873
H         4.52029467964141    5.94959615971124    9.06130694213660
C         3.80869487650138    4.07907059859718    8.27934748162225
C         2.91054853392437    3.77434133453874    9.37964401032354

