65
CSD_code = ZOSVUB | q = 0 | S = 0 | Stoichiometry = C30H30BBrO2Zr | MND = 12
Zr        1.39741329298272   11.90723650678453    6.93311976818491
Br        6.86333663677626   15.87113485967182    8.51252424770887
O         3.23159364475219    8.95809098806385    4.34635014582228
O         1.44735189686518    9.43399874454155    5.69845696459554
C         3.18377604913558   11.08618748867594    5.99752522903387
C         4.36289812178498   11.68120587248759    6.27231962698752
C         4.29558643874435   12.95592509818005    7.01894516622986
C         5.43593407251225   13.68431761329213    7.35338804087430
H         6.41886111938957   13.33220978044321    7.07633997964293
C         5.29624612770164   14.86484489038793    8.05767359156958
C         4.05649683148018   15.33335075732304    8.44460402700309
H         3.97025418840230   16.26014395426871    8.99271045186755
C         2.92914594324917   14.58101454553758    8.12565854591007
H         1.96261452704631   14.96439948210589    8.45326675062528
C         2.99718061710050   13.38126513071814    7.41790450088128
C         2.19862335636316    8.05162724525916    3.95077968116689
C         1.16170606056291    8.14847782933478    5.12904320023260
C         2.80122242969891    6.66560000596941    3.73679587549251
H         2.01781908285532    5.94215132746552    3.52725169943610
H         3.48021511777692    6.70523208302502    2.88907597443982
H         3.36935985857586    6.34596772154499    4.60413736820388
C         1.63959503456592    8.56802801452779    2.61989578579254
H         0.87229121624902    7.90525065790467    2.23099662731938
H         1.23624332773637    9.57048573670644    2.74152565063908
H         2.45529093898101    8.62450150343641    1.90309526584393
C         1.42275556187507    7.10128243238984    6.22072938879593
H         1.19132559755887    6.10033992249608    5.86951318157829
H         2.46175652389166    7.14492292885600    6.53942694016805
H         0.79578034494193    7.32318237078116    7.08190611971436
C        -0.30376762676658    8.07826873995660    4.70690274498955
H        -0.50382234539601    7.13523857829253    4.20531209255119
H        -0.93325086282431    8.14078918244615    5.59224487718693
H        -0.56955026703340    8.89679731128501    4.04550092983236
C         5.66253585592600   11.09924229417418    5.87319387210515
C         6.00007308330575    9.81601123729084    6.29302640350508
H         5.31687454877344    9.28379010789779    6.94058088571671
C         7.19132145288482    9.23717375903989    5.89820457227572
H         7.44714265481739    8.24351872232125    6.23756364606342
C         8.05920820388731    9.92929849498367    5.06965731033964
H         8.99123752750324    9.47813977879770    4.76201430635642
C         7.72556259715192   11.20042513898690    4.63374481936720
H         8.39535284335844   11.74017572949702    3.97971872712482
C         6.53662887054433   11.78379539873784    5.03281984846344
H         6.27073964183299   12.76907659794450    4.67691560227451
C         0.99879832985133   13.11464932163560    4.73101892516845
H         1.77227284564345   13.31041658713321    3.99812158427054
C         0.57831198715989   14.00308190186381    5.74498420871802
H         0.96029872324049   15.00401399219708    5.90045488096542
C        -0.52792536914650   13.42633285960698    6.40238955111677
H        -1.14857478803010   13.92073490495798    7.14215157008222
C        -0.80121884140913   12.18142770303111    5.78658852359612
H        -1.66856455672199   11.55609323673612    5.97163736588860
C         0.13872490012785   11.99769508089681    4.75084280879817
H         0.11947214779338   11.20930068825722    4.01023978535615
C         1.62487856602393   10.13493105790797    8.67259394802947
H         2.25779436152094    9.26514784937431    8.54299355411662
C         1.99909228332460   11.33140667324311    9.32112185388906
H         2.96714857560030   11.53716639524378    9.76240707030755
C         0.85110666819161   12.14901283515805    9.42414998883658
H         0.78922158015981   13.08141610813661    9.97199349503585
C        -0.23120192605932   11.45542169371877    8.84955057919809
H        -1.27165261994664   11.75625168366364    8.89525343523939
C         0.24500785491404   10.21475774497002    8.37538321060388
H        -0.37302286776765    9.40974416017617    7.99485571434848
B         2.75887200792559    9.79488095830739    5.30520751257057

