111
CSD_code = ZOSYEO | q = 0 | S = 0 | Stoichiometry = C53H49N4O2RhS2 | MND = 6
Rh        8.73720761205992    6.68714814157499   11.97375759052325
N         8.07418976128728    5.05033756191113   10.94801722197149
C         9.02977742770585    4.52783804273236   10.21323140558776
S         8.64791293850014    3.00817477780582    9.46725286914743
C         7.04622618972991    3.12805914885562   10.13557802645036
C         5.97144483630397    2.27853822705446    9.95537897780708
H         6.08295294954993    1.37122905947109    9.38264652393918
C         4.75118416805818    2.63225475448089   10.49686908937376
H         3.91777308906511    1.96993181876940   10.33399589349841
C         4.58073203078162    3.81979608056101   11.21575882783492
C         5.68091665710725    4.63741583161506   11.42560373262640
H         5.59633148747054    5.56339277479880   11.96572218922480
C         6.92292053185761    4.30714101138597   10.89454966670588
C        10.23709884354594    5.26205910818032    9.99831481193445
C        10.24928043898985    6.49943619629395   10.67677182222983
C        11.32713614676176    7.33986767522172   10.40793148726326
H        11.39168849623889    8.31917331600717   10.86659257330166
C        12.33615541080553    6.95795177046561    9.53791660752344
H        13.15657588987817    7.63583058639324    9.34515608051146
C        12.31487295623804    5.71756918743023    8.91344195360681
H        13.11771776834336    5.43110842960640    8.25038180890845
C        11.25639361990850    4.86373126866279    9.13611223911003
H        11.20193598228176    3.90020809013057    8.64859909509963
C         3.22256366096383    4.27271332399411   11.73092056127998
C         2.12262217373156    3.23390467904886   11.49397515810925
H         1.18228519303764    3.60716918191653   11.89435946458342
H         2.35366535321433    2.29734007053305   11.99689804777406
H         1.97905815281988    3.04510785780337   10.43258127359960
C         2.83934064526738    5.56439653273773   10.99374280840124
H         1.86737478438082    5.91431607176597   11.33459385246546
H         2.78490156546706    5.38571873454703    9.92128490250647
H         3.56775828361366    6.35034097308541   11.17491827151980
C         3.30663973872501    4.54784446346505   13.23780657545012
H         2.31668629120966    4.76645154329114   13.63248671827005
H         3.94167013893782    5.40245978290676   13.44335909602230
H         3.70247810990899    3.67920038599363   13.76098567764233
N         9.73007977097251    8.17213830123738   12.96410303427269
C        10.80317803188766    7.70713620448983   13.56329439007061
S        11.87369887076722    8.90994890527521   14.20828102481023
C        10.75385100462389   10.13136701052927   13.68104108302307
C        10.83415603381463   11.50253794142303   13.84690677728840
H        11.69966832660155   11.94683130185369   14.31267312609079
C         9.77624498462657   12.27556675068766   13.42087913800558
H         9.84231994383342   13.34384735604414   13.55272358346332
C         8.62585631018780   11.71302136481516   12.84936766477376
C         8.58147043347610   10.34477351992078   12.64910954716079
H         7.72679933397059    9.85992398249696   12.21400655460418
C         9.64628033191381    9.53810690791433   13.04910867847792
C        10.97716466763926    6.29575367923498   13.70770043771749
C         9.94478217062016    5.55408126963338   13.09531383347800
C         9.97041556233873    4.17613562737479   13.29662352698039
H         9.19535143069005    3.54374132882928   12.88077264290988
C        10.97390081537372    3.57853380842574   14.04278295403814
H        10.96296324425476    2.50666338730225   14.18677531520111
C        11.99716299937197    4.33174085615363   14.60396500965063
H        12.77911703461055    3.84683420402748   15.16941287281426
C        11.99953420362946    5.70042786966644   14.44353753130945
H        12.77281195336258    6.31460362320031   14.88392115755255
C         7.47397021775396   12.62914240546102   12.46294322295822
C         7.10701970594707   13.52932098759599   13.65205014121112
H         6.23823608025474   14.13453844077136   13.40263329846792
H         7.91636665876658   14.20279724829373   13.91864524563596
H         6.86400289664060   12.92220935861475   14.52144169046998
C         7.92046864829280   13.49367340264115   11.27539020751241
H         7.11637660442921   14.16150344296480   10.97421032243021
H         8.18125770831896   12.86281644065418   10.42797154921116
H         8.78921341781328   14.09512087387883   11.53150579683929
C         6.21611764413309   11.85487552391418   12.06335645047412
H         5.40777370939020   12.55469584297767   11.86121873905792
H         5.89594156685160   11.19041726384437   12.86226550864542
H         6.37405123068289   11.26826637331991   11.16429340675817
N         7.16418949817874    6.81274313403933   13.44634222302864
C         7.22804004193217    6.31693595764444   14.81184858582619
H         7.44667039497825    5.24254735642234   14.81326844338856
C         5.80980913926150    6.61453900043868   15.35673265386115
H         5.21512241259620    5.70312558731692   15.48620628323344
H         5.83319138386024    7.16213878392445   16.30305534633516
O         5.20466754838816    7.42610787600731   14.36977109317063
C         6.04562607029271    7.47276705060759   13.29039390683405
C         5.59262989160051    8.17586577179403   12.17815175974128
H         4.62311376431505    8.63868041071907   12.24098867985857
C         6.31118713806063    8.34471644426129   10.99891929434579
N         7.51061364684107    7.91737805065443   10.69769643804450
C         7.80304232744649    8.28065770963419    9.32022676886921
H         8.77571406953793    8.78287342421088    9.25975419741450
C         6.63984292683658    9.23628025258645    8.96230730803347
H         6.96522832649220   10.28322487634706    8.91735813126477
H         6.15584726731206    8.97400694585974    8.01802007901339
O         5.71060157394188    9.08454534669990   10.01582987320363
C         8.27909394533359    7.04423567692498   15.61858938885625
C         8.25347876849976    8.43252858442688   15.68913401184995
H         7.49549073845910    8.98252851388218   15.14907172566697
C         9.19540584388877    9.11426506729381   16.43677500860030
H         9.17018394999463   10.19403832837657   16.47755644816719
C        10.17236593478174    8.41411425568548   17.12559793938852
H        10.91138707241847    8.94644946734844   17.70614041112007
C        10.20061058462916    7.03187450268923   17.06323998931268
H        10.96144258443256    6.48128226501374   17.59655717733843
C         9.25792553578531    6.34970360570696   16.31370164090802
H         9.28685285354302    5.27091925807055   16.26225874209701
C         7.80593871636755    7.06862571902536    8.41697114621490
C         6.69093212136348    6.23906800392824    8.37583485386403
H         5.83805067388466    6.45397461557193    9.00417947220761
C         6.66844269187003    5.13663550613298    7.54213530283198
H         5.79861456869436    4.49550253088356    7.52349379489714
C         7.76075213063110    4.85205234925789    6.73907148252479
H         7.74531197358052    3.98799255545897    6.09124090411845
C         8.87255441173293    5.67543335793221    6.77360682843648
H         9.72807928304433    5.45674333244205    6.15177233490046
C         8.89479899099682    6.77962014756377    7.60786105134881
H         9.76647633263677    7.41732911130952    7.63592091469369

