100
CSD_code = ZOSYIR | q = 0 | S = 0 | Stoichiometry = C53H42N2P2Ru | MND = 8
Ru       -3.73032908862404    7.35625985360828   18.07454041143611
C        -5.33315226506706    7.50811784173185   19.26096726248275
C        -6.21376501483211    7.55576727758145   20.09767226046893
C        -7.28042624856472    7.65434844582933   21.01262715187888
C        -7.79665248361010    6.52437339437288   21.66260042831856
H        -7.37494913005395    5.54379273886917   21.47229303605011
N        -8.79145118672585    6.55950971853997   22.51867064712896
C        -9.35638691793008    7.73651311542690   22.79906371638862
C        -8.92499036931740    8.92539046926978   22.20274460957038
H        -9.41946861068731    9.84759320174379   22.46260006755308
C        -7.88229408667609    8.88531978575087   21.30406180531337
H        -7.52197529796495    9.78399644653514   20.82092972823974
C       -10.45493233646124    7.73607316966546   23.76687415248045
N       -11.01620857012214    8.91082145146270   24.05443508720899
C       -12.00468593228259    8.93963433955327   24.92614115000583
H       -12.42121482269106    9.92056129117712   25.12146382613633
C       -12.50050616488203    7.81372868349748   25.56648822284209
H       -13.31296266790055    7.89356409181218   26.27241738829633
C       -11.92006875888659    6.58818789808742   25.27017548777036
H       -12.27464397152025    5.68402415702228   25.74519218246417
C       -10.88330474278026    6.54434406709283   24.35918432598580
H       -10.39248647314513    5.62339851044561   24.08969947913405
P        -4.37793639882401    9.21700619249471   16.94871182925649
C        -3.31386793579308    9.48340583182613   15.49427606582922
C        -2.10686684642824   10.16944059225372   15.59286218017224
H        -1.84148014255926   10.65591426252472   16.52216223546079
C        -1.25231280742705   10.23549061273826   14.50730338392223
H        -0.31925588019526   10.77431911024954   14.59062921310231
C        -1.58735696792421    9.61032148463740   13.31695720863130
H        -0.91813185906188    9.66527870674444   12.47085538297716
C        -2.77771413228102    8.90762229047283   13.21725805744481
H        -3.03808494501041    8.40862351775171   12.29491524831751
C        -3.63005806475091    8.83542195990181   14.30232521988895
H        -4.55168143237004    8.27191835865335   14.23908566723379
C        -6.05146711074672    9.62205493523451   16.32712223374248
C        -6.29757472906871   10.32069777574733   15.15026877380875
H        -5.48814881129407   10.57022297034553   14.47890359061490
C        -7.58997146358044   10.69751708702071   14.82946665834601
H        -7.77652933252739   11.23279785190592   13.90926020289336
C        -8.63872740156375   10.40356864735761   15.68439563446709
H        -9.64342844561279   10.70894235949897   15.43074364025862
C        -8.39500460056293    9.72231788282251   16.86576081971480
H        -9.20728565377263    9.49402643841422   17.53971363239277
C        -7.10875583712272    9.33114606882871   17.18439408082005
H        -6.90275742109501    8.78530607688843   18.09533809982203
C        -4.18445968616881   10.77884363610763   17.88535737376242
C        -4.10666700989555   12.01032736304017   17.24102177634502
H        -4.11243437638602   12.05451174834903   16.16043813520443
C        -4.01763360188608   13.17337556428595   17.98226895207874
H        -3.94714442649335   14.12726391407624   17.47888715317414
C        -4.02476435016200   13.12005570048014   19.36769985225407
H        -3.95636852003325   14.03222720877005   19.94231865916699
C        -4.12786960516432   11.89898277173907   20.01223139065064
H        -4.14686472330142   11.85612095114853   21.09174648745740
C        -4.20854070470000   10.73162541149290   19.27361016390509
H        -4.30208153324608    9.76943169722558   19.76447414566870
P        -4.91945901721860    5.81121665586496   16.92224319592907
C        -4.41975958301148    5.33886421551453   15.22632592740868
C        -3.20032853432128    5.77806615148420   14.73006351263943
H        -2.58567157255118    6.42511233471259   15.34069876805508
C        -2.78068925954004    5.40979474959003   13.46360570381356
H        -1.82941891908745    5.75941881394619   13.08873662424881
C        -3.58304295532502    4.59876436132110   12.68029114064088
H        -3.26090236896081    4.31071933597070   11.69023468284566
C        -4.80395259105102    4.15579127853069   13.16745614816937
H        -5.43048095704866    3.52161151181046   12.55685166528384
C        -5.22220813109547    4.51936178630984   14.43338551168280
H        -6.17324273858037    4.17235288066070   14.81431244374986
C        -6.71647632718927    6.03469411848013   16.67490195622333
C        -7.15566115423424    6.69114026597552   15.52748035193102
H        -6.43621947970052    7.00336411476948   14.78244618203692
C        -8.50079765769137    6.93412102452682   15.32966140808515
H        -8.83028503369372    7.43300619377769   14.42994051781403
C        -9.42237943988502    6.54868860193735   16.28929705313465
H       -10.47390249012789    6.74324224989270   16.13771950262523
C        -8.99166667177796    5.91494228383882   17.44241438924466
H        -9.70601517368230    5.61847302887393   18.19666144483349
C        -7.64686351068831    5.65412870298920   17.63537264267613
H        -7.32249491446221    5.14782657184967   18.53098917090764
C        -4.83593232789758    4.19178995338369   17.77634961961560
C        -4.46774430428304    3.00318366860196   17.15614482958621
H        -4.23022620695226    2.98497359263177   16.10240734326247
C        -4.39156234637459    1.83013503127532   17.88851743939021
H        -4.10079694511075    0.91318274989335   17.39607266236446
C        -4.68097132406837    1.82764068219485   19.24163834276039
H        -4.62221625149563    0.90907142358294   19.80687962532429
C        -5.03110357769379    3.01204214967694   19.87056809162588
H        -5.24306424307479    3.01997287557343   20.93024979307324
C        -5.09665776026666    4.18731919988154   19.14661221658541
H        -5.32990337001820    5.12439562424888   19.63915952423059
C        -2.37478214723854    6.13642156414322   19.36264043643937
H        -2.56877892128959    5.26743863099469   19.97814972264571
C        -1.86210635456023    6.10571437346580   18.03366464250525
H        -1.66518765529804    5.20306302674703   17.46667259543693
C        -1.51259492565090    7.41650420389080   17.65888905555422
H        -0.96308675677719    7.70734127709704   16.77253977848649
C        -1.79794171968579    8.27240704695235   18.76421883620495
H        -1.50812174411559    9.31378225316487   18.84317875447462
C        -2.30397633606355    7.47882181476390   19.81765269589441
H        -2.49974440403376    7.81485069486732   20.82799847475081

