109
CSD_code = ZOSZAL | q = 0 | S = 0 | Stoichiometry = C54H52O2Ti | MND = 12
Ti        4.19585720481957    5.16933598283971    3.88391734532905
O         3.90519582178117    6.84530952941962    4.09304018699785
O         5.62009777337928    4.89189933259495    4.84139374356489
C         4.60758861854238    6.02577768861964    1.81431072678852
C         5.66768443831560    5.13187906339346    2.13090847127597
H         6.70297119924311    5.40663877044215    2.29567423849116
C         5.19706240944677    3.80639856136889    2.09732221840875
H         5.81154781286757    2.91920898003475    2.18035892651072
C         3.86041350637762    3.83290865038925    1.62356241671770
C         2.99230632121410    2.79640484464787    1.24422160079871
H         3.29388249986042    1.76519767304293    1.37672435102266
C         1.78467305957616    3.11134183320799    0.67390009399848
H         1.11042138439803    2.32662605118587    0.36252359435643
C         1.42570301126883    4.45050205141160    0.45190665762511
H         0.48841230330729    4.66424482008998   -0.04132757426229
C         2.24877560909500    5.48880197564715    0.81518916490194
H         1.97114661295177    6.50068248376060    0.55854236855525
C         3.48217007478110    5.21476726239264    1.43882062123247
C         4.67768427422661    7.54797905976018    1.92429883531158
C         6.13811777501829    7.92784901268370    2.17532886229414
C         6.74402821194263    7.62408767535780    3.39680909079078
H         6.16551901956487    7.13498060473828    4.17173754329516
C         8.06988416250048    7.93294713568678    3.62937060963801
H         8.51361312808499    7.68839372358914    4.58473726255907
C         8.84683597417144    8.55147588960240    2.65511785695861
C         8.24901586665586    8.84239185129463    1.43961476679891
H         8.82739822851782    9.31677832509605    0.65944144091121
C         6.91908313578450    8.53485678783466    1.20055190613582
H         6.50030571290958    8.77425679483672    0.23544542896971
C        10.28629957935162    8.87315421482235    2.91965465614639
H        10.39033065822963    9.41931095818317    3.85587711983259
H        10.70523419754606    9.47295549424226    2.11572379292431
H        10.86818359866705    7.95532851603936    3.00415090223016
C         4.21782817319473    8.22242562532598    0.64315209091674
C         4.18191499597203    7.51988157803026   -0.55663038281036
H         4.46266479949971    6.47796282494657   -0.57904084455394
C         3.80355122725369    8.13655832487108   -1.73617206640578
H         3.77789096859111    7.55869068937424   -2.64920604905449
C         3.46415786603990    9.48092892074298   -1.76538906517787
C         3.54579493942547   10.19687606034548   -0.57719389488427
H         3.31591428817178   11.25323553823079   -0.57660830365960
C         3.92483442549991    9.58324229958783    0.60125109233387
H         4.01197776949950   10.17936465780664    1.49453472953979
C         3.05967661943393   10.15817845954187   -3.03926752931629
H         3.87623251031396   10.77840607423251   -3.41015998930574
H         2.19953088438588   10.80461084740835   -2.87492280742324
H         2.81051660552406    9.42818190264962   -3.80539983338288
C         3.77864332676986    7.91165534678717    3.20741771991433
C         4.18633840634702    9.21435583648127    3.93336563624013
H         3.92147456989043    9.09261841880779    4.98346001000395
H         3.63550119257070   10.06575673804754    3.54410709860251
H         5.25020707292350    9.41970723570946    3.86808587413172
C         2.28253196102493    8.03929760217783    2.86463620161992
H         1.87171850167864    7.05896678153967    2.63798064211119
H         2.11337593675138    8.71370388932863    2.03038309121982
H         1.76460972284064    8.41961352910852    3.74360266175932
C         3.43661265082236    4.14032194095985    5.91917615306997
C         3.05962178204448    3.46126995280292    4.73402399989041
H         3.41827915833087    2.48580867410689    4.42076575222100
C         2.01701847036745    4.17669578582573    4.09852193551371
H         1.41494660573379    3.80897561368889    3.27656051631999
C         1.62602760889370    5.22996747998502    4.97015762910065
C         0.55719707949733    6.13319742926119    4.90905113980735
H        -0.13335054039737    6.09726836529462    4.07620353330181
C         0.39121358435813    7.04292156815016    5.92431050863185
H        -0.43521756522738    7.73905035556963    5.89845094846678
C         1.27928198344766    7.07412770273046    7.00760527512195
H         1.12226969181901    7.80047758686015    7.79251347035899
C         2.32977390061149    6.19226453593898    7.10418689986834
H         2.97182896677130    6.22258346142852    7.97235231084945
C         2.52392583455622    5.23459338671273    6.09480963582629
C         4.66218958038205    3.79745037139160    6.75204692881403
C         4.37574106926824    3.90508807119022    8.24055955244518
C         3.07791642520523    3.71696181915566    8.71077775070446
H         2.27727245446701    3.53303771340454    8.01049632727205
C         2.79163712355542    3.75079922809958   10.06303093351480
H         1.77167659820899    3.60780461011827   10.39082720888044
C         3.79260606805463    3.95682204131545   11.00155885373543
C         5.09362057378308    4.10190050872184   10.53885647514635
H         5.89778283178300    4.23731309180428   11.24874848147780
C         5.38215318540177    4.06581223969305    9.18670962153792
H         6.40954304959067    4.15240437568319    8.87775113030248
C         3.49083029235936    4.01827857139718   12.46790603332456
H         3.56303019352716    5.04680144960827   12.82265008534277
H         4.20413049980560    3.42084785954925   13.03308410591067
H         2.48667984841265    3.65598048133906   12.67378333407069
C         5.04798457184246    2.34577067896208    6.45173880059135
C         4.66172303822237    1.30733882656597    7.29149393083082
H         4.11052735143066    1.51413794943701    8.19536702112450
C         4.96971438089903   -0.00933488006038    6.99403915605089
H         4.65396601255099   -0.78930338382540    7.67251523885869
C         5.67193296215422   -0.34297982470368    5.84653218723627
C         6.05483114632026    0.69086367643205    5.00058074305013
H         6.60330602551556    0.46154870099998    4.09694108101743
C         5.74826022911848    2.00547264798625    5.29426729809987
H         6.06715641057788    2.78405850070520    4.61437340747867
C         5.99803542208663   -1.76660964861641    5.51159761662200
H         5.37652115370788   -2.11030673568799    4.68427248125016
H         5.82120629642680   -2.41677767461962    6.36472278695569
H         7.03892627975388   -1.86096240933846    5.20683884614425
C         5.78674871367080    4.81055398898327    6.22159081420751
C         5.58948573278820    6.22501200183192    6.80222601633464
H         6.45738678987534    6.83147482860964    6.54509885121895
H         5.48409515701781    6.20408169332360    7.88310581164931
H         4.70563242935068    6.67846989548132    6.35044491270536
C         7.23799229569698    4.35855751554326    6.51754889525305
H         7.30397496427504    3.29843405106360    6.74421866230878
H         7.66510728585100    4.92557633877090    7.34037815464205
H         7.83411639745099    4.55750621104634    5.62719544601103

