115
CSD_code = ZOSZEP | q = 0 | S = 0 | Stoichiometry = C62H48Cl2N2Ti | MND = 12
Ti        3.34491836757314    8.80209327071116    8.80924307191623
Cl        7.71215924262136    3.01231462410252    4.52247344789762
Cl       -1.80951983177008    5.11473500610799    3.17390680097073
N         4.50711863391545    7.61286602259163    7.95888303330544
N         1.95165759331908    8.23380596578318    7.71206317139768
C         5.06326173063457   10.09718841329630    7.85914975636168
C         4.78940910597777   10.65120989749789    9.12122133723356
H         5.50606767747730   10.75143575432861    9.92861252321579
C         3.47100899595655   11.14699775852452    9.14119122372519
H         3.03676510613289   11.75750021224225    9.92105451279996
C         2.90831441277457   10.95454288607874    7.85050194093584
C         1.67369376716318   11.32355932737078    7.28468785931494
H         0.93958614666990   11.84944541914382    7.88281136226486
C         1.43462510804018   11.02721582442317    5.96769625102405
H         0.49660647073524   11.31267554849202    5.51293631359377
C         2.39164283988650   10.35485531203305    5.18424544152349
H         2.16329406631428   10.14786293697477    4.14786378108900
C         3.60450192896860    9.97331663070270    5.70079149352869
H         4.33462449501730    9.46859989195920    5.07998350114848
C         3.89815792050781   10.28285864707761    7.04219462002330
C         6.24401513927757    9.23894330701448    7.45422061300720
C         6.88819403126772    9.71023222434984    6.16174168776295
C         6.56667624974838   10.94888031322661    5.61409764443426
H         5.84206837889429   11.58426905361326    6.10069708252452
C         7.17068716135466   11.39407704696765    4.45280906555672
H         6.89379841222918   12.35816405378489    4.05013859404358
C         8.12747349011954   10.62779278285840    3.80247111963128
C         8.48100480031403    9.41196415531896    4.37248490330916
H         9.24294462407644    8.80510054605124    3.90409488746020
C         7.88254439441307    8.96559231617970    5.53560991647583
H         8.20923160124320    8.03012197341766    5.95867572028296
C         8.79134301336332   11.11251482623337    2.54992268559332
H         9.74566564239811   11.58255731233563    2.79045089030680
H         8.17137325743554   11.84678374878325    2.04119127595271
H         8.98826851980952   10.28464052823113    1.87217619014872
C         7.28507940173166    9.23746806355379    8.56501846472307
C         8.27455751281384   10.21395817558268    8.59204735107497
H         8.31944263787905   10.95245646977101    7.80538409878713
C         9.19925762755480   10.25546317319499    9.61877465405857
H         9.95819977001570   11.02486031613264    9.61869486285994
C         9.16589755663568    9.32764489847372   10.65196217514490
C         8.17282698723508    8.35721693884096   10.62683890076797
H         8.12414342016675    7.62428217084535   11.42057173693559
C         7.24341195646067    8.31261060307747    9.60274389758996
H         6.47881778660970    7.54553144112517    9.61306417477381
C        10.18342319577277    9.36049732289215   11.75103925686436
H         9.76872398944806    8.96839001218149   12.67708824673118
H        10.53647309374636   10.37476814533778   11.92243727558994
H        11.04322491231846    8.74616875276679   11.48093730812969
C         5.58632718543952    7.82401501502783    7.36650709757513
C         6.20196624292045    6.68881654228101    6.63382510184622
C         5.47680250061588    6.13094842472191    5.58464940929470
H         4.54001723266654    6.58596066084311    5.29524141324038
C         5.94032810177510    5.00823593736086    4.92505077311000
H         5.38071929089601    4.58164142780256    4.10743054030627
C         7.12955974701207    4.42522684778220    5.33323931699799
C         7.85404064028362    4.95331021357817    6.38995671470393
H         8.77201184242087    4.48169506424191    6.70466786408637
C         7.38921671585294    6.08403346213928    7.03699517144864
H         7.95014781089077    6.49020242224520    7.86621382650362
C         2.19476259978826    7.37327872792247   10.09593904159295
C         3.53092190081596    7.05980812827805   10.43982923616931
H         4.01222201570390    6.10524703008792   10.25954973239802
C         4.10254586456576    8.13613024950955   11.13930501033603
H         5.07141333903314    8.13301805446613   11.62018167076256
C         3.09258669656861    9.11063103851211   11.34597857956020
C         3.05437499472350   10.27081237951451   12.13669807590476
H         3.92937081782606   10.57203073901877   12.69840880959138
C         1.89075082894365   10.99619974558261   12.19852433687971
H         1.83726464016153   11.87997769722209   12.81818559674582
C         0.75789233068644   10.61145402353040   11.46021718888153
H        -0.13204224547729   11.22177739618801   11.51696847590033
C         0.75109828940821    9.47291904979890   10.69169748109214
H        -0.14405979797779    9.17984200662065   10.15946515177965
C         1.90717274904435    8.66824746625651   10.65234096221170
C         1.21073671679205    6.54398978653740    9.28334592324633
C         1.73083131458938    5.12566546720377    9.08497172153209
C         1.16410606885044    4.01461939276940    9.69692271543174
H         0.31061361874310    4.12501783769857   10.34945656565433
C         1.67365755408862    2.74665350331075    9.47226171857761
H         1.21242013342374    1.89978628699384    9.96077498124547
C         2.75821555227358    2.54629076800268    8.63158636135678
C         3.32181943795465    3.65882487089990    8.01603998478182
H         4.16764961847734    3.53286927510701    7.35433040623598
C         2.81700804948946    4.92564892748912    8.23319421568746
H         3.27751841069316    5.77513562525400    7.74246587477868
C         3.31896796239925    1.17785945311952    8.39159881574866
H         3.44697806927499    0.99974683304740    7.32539437227969
H         2.66611129025805    0.41081788192018    8.80053978791116
H         4.29740159235593    1.08453070557724    8.86280502840322
C        -0.12285895345859    6.58948161653722   10.00764403116697
C        -1.32140851169146    6.95642091293641    9.40912726755979
H        -1.35219959820132    7.22957046714597    8.36562624907163
C        -2.49183362432050    7.00321379802039   10.14599269193593
H        -3.41205572305495    7.29333011244728    9.65865715328948
C        -2.50550237757090    6.69387107924676   11.49961677735448
C        -1.30367601081972    6.34736813521862   12.10207885107908
H        -1.28100509892778    6.11631752569958   13.15770808535802
C        -0.13254183731357    6.30149275024206   11.37077258478311
H         0.79561895455313    6.04749751493936   11.86370523937005
C        -3.78453311299620    6.74745265050701   12.27822183436098
H        -4.22999464736306    7.73907791409041   12.20962994923014
H        -3.61268448069571    6.51520689735508   13.32613931054273
H        -4.50266802425412    6.03297318652668   11.87693564536645
C         1.21352233807838    7.23336769067907    7.88786803298587
C         0.43460597892966    6.66384742365028    6.76453708327875
C        -0.27698852135810    5.46603484370010    6.83291255892605
H        -0.30473616708920    4.89467999963898    7.74607776575870
C        -0.96266641459114    4.99010807618622    5.73132774600955
H        -1.51089738378312    4.06296396770389    5.79105993745506
C        -0.94647689303690    5.70993719905757    4.54688500566134
C        -0.24413640308449    6.90228727092330    4.45417736737245
H        -0.23738808186706    7.45472665735455    3.52747928798779
C         0.44079415332303    7.36731337316600    5.55766723792595
H         1.00020037408966    8.29081255000248    5.51510113059584

