79
CSD_code = ZOTBOB | q = 0 | S = 0 | Stoichiometry = C24H48NiO4P2 | MND = 4
Ni       -0.06108477356891   15.20639177996259   19.33745970307351
P        -0.24026309637146   14.07419185901912   17.46781185694756
O        -1.45413946146120   14.78022919500621   16.63835982835903
C        -1.27872206379811   16.38310671518374   18.44597491607137
H        -0.56784978831910   17.05194683717200   17.93060047100365
P        -0.21697710021814   16.71435186542814   20.92067673494849
O        -1.43145957675036   17.70558164454852   20.46966724492297
C        -2.17302651445105   15.75747398893696   17.38389353924983
H        -3.03519246457536   15.26648600860710   17.85705986808495
O         1.02829574575768   13.81446053249991   20.39416786999839
C        -2.69974780016586   16.87350988494029   16.47774850558237
H        -3.33838868359409   16.45099951645770   15.69974192760670
H        -1.85543913714365   17.36530113924775   15.99127623456286
O         2.32550095705893   15.21647312707094   19.32284032781946
C        -3.49202283408526   17.88029854156499   17.31594972490852
H        -4.39324541264186   17.39196717716151   17.69444777127777
H        -3.80584897916131   18.71180861217438   16.68278653536898
C        -2.68739119609636   18.41943236143755   18.50160726391944
H        -1.84235944026108   19.01325527405089   18.14851670073600
H        -3.31751642824058   19.06254543523359   19.11886842160265
C        -2.16122919596053   17.24834592539222   19.33575765665764
H        -3.02435783652050   16.66778382060590   19.69130394793331
C         3.38388452177071   13.49692055294773   20.62216116413889
H         3.06634104449107   12.61242478114371   21.16692166083578
H         3.93150950907799   14.16059940726427   21.28845821407489
H         4.04464939999491   13.21648605945066   19.80505900741725
C         2.17354404700855   14.23154681583554   20.06892949515307
C         1.08257082155723   14.18074324785312   16.12856667024520
C         2.28711882089644   13.31454557376614   16.47508463361864
H         2.59402622814540   13.49764548644603   17.50141689118955
H         3.12112243296820   13.56427753320539   15.81982164784325
H         2.06863473408017   12.25700068066729   16.34954234679332
C         0.54862479313726   13.84433633428625   14.73898601057963
H        -0.40500316154159   14.33575506244589   14.56556376193384
H         0.42111799715461   12.77491814740204   14.60371517284052
H         1.25677013286572   14.19435086919220   13.98834971611682
C         1.50279369410961   15.65289086205243   16.16535404376523
H         1.84251749403473   15.91323547179604   17.16768558894727
H         0.66746421946553   16.29383259948816   15.88846058025160
H         2.31852213599118   15.83353954322218   15.46649567445031
C        -0.90913831572449   12.31917468673923   17.69610268018711
C        -2.09947720719423   12.53009728845871   18.63668932622430
H        -2.91928476124557   13.02708097339645   18.12144733277938
H        -1.78663416407328   13.14426809244408   19.48811948864592
H        -2.46300011111019   11.57695863749402   19.01837547182364
C        -1.38479371698107   11.67597971652356   16.39898189687322
H        -1.94382723756640   12.39131422760020   15.79964908879888
H        -2.03613092894214   10.83182197459112   16.62510088173275
H        -0.54810900317441   11.30208749614273   15.81486443414009
C         0.11532753956894   11.44251937974777   18.40915597248902
H         0.48906148018547   11.95388189880919   19.29351660660142
H         0.95617411453551   11.19834185824304   17.76686739046704
H        -0.35159964046418   10.50857692675029   18.72135844957007
C        -0.87612892373034   16.03177445426696   22.55763516298034
C         0.16290960657385   15.13607197002221   23.22414861090426
H         0.98784183724233   15.71067808185995   23.63489072150988
H         0.55712643185695   14.42489345227860   22.50158667482883
H        -0.29767197271654   14.57962553904761   24.04018573901650
C        -2.04938983150967   15.15544330797068   22.10828075609848
H        -2.87646251822376   15.76578170771316   21.75030715780304
H        -2.40962451570794   14.54077462595419   22.93217706153575
H        -1.71909254103282   14.49049821454134   21.30258157615974
C        -1.37491379500730   17.11107523563919   23.51110664483095
H        -1.94198687620010   17.86647688316590   22.97154608866663
H        -0.54956574714765   17.59218658688928   24.02887015150004
H        -2.02456373639125   16.66422385789049   24.26359161579830
C         1.11279753080479   18.03028633385902   21.15564815742572
C         1.49457879240208   18.40209974247446   19.71996450484597
H         1.81510838120175   17.50905761165045   19.18330887261792
H         2.31468098167037   19.11887755479051   19.71772018351064
H         0.64718073872255   18.85036472898479   19.20423738281415
C         0.59473974871914   19.26959289185908   21.87976109639335
H        -0.37421215046727   19.56619255725191   21.48717089197676
H         1.29309357764941   20.09231946252537   21.72868031212104
H         0.50383039186504   19.10176985442554   22.94848105571129
C         2.33983423953446   17.46178117866829   21.85721663192559
H         2.64782911992025   16.53792546509494   21.37531183807576
H         2.14820972698474   17.27097992409288   22.91000506977317
H         3.16333967054051   18.17225534995976   21.79006769000641

