76
CSD_code = ZOTBER | q = 0 | S = 0 | Stoichiometry = C23H46NiO4P2 | MND = 4
Ni       -0.08209898471794    0.99270823518936    2.07242629381034
P        -0.30147820926799    2.23483122305379    3.87078327586999
C        -1.31730038846661   -0.13076436708066    3.00898659905022
H        -0.60967147247120   -0.76284787255165    3.57365437917509
O        -1.52845097423023    1.57335623156404    4.71695199082882
P        -0.20947961771347   -0.60884975753672    0.57773608945998
O        -1.42933795490898   -1.57398878886216    1.06730466753509
C        -2.23116662280370    0.55096685849373    4.01874678064622
H        -3.08818810803803    1.00842552037021    3.50464820064982
C        -2.76557196709711   -0.51341387327751    4.98089788819383
H        -3.41814326319800   -0.04944957671388    5.72271160454523
H        -1.92606206186246   -0.96974725499585    5.50837198544117
O         1.05063840678800    2.31625986426040    0.95420174610137
C        -3.53933746207833   -1.57334888659626    4.19270647092795
H        -3.85743995086998   -2.36794329948179    4.86951614482466
H        -4.43754409407964   -1.11467740291727    3.77246540693267
O         2.31662539305110    0.97649509946297    2.15133951420147
C        -2.71299734100785   -2.17604723683846    3.05369436654210
H        -1.87011025137278   -2.74217605796654    3.45404609627848
H        -3.32931066385041   -2.85875836201354    2.46591430053263
C        -2.18040492865690   -1.05367782747054    2.15885916647616
H        -3.04095979447095   -0.50153841819321    1.75531339268717
C         2.16287102109638    1.90072327326436    1.34633736031516
H         3.06223400292691    2.41126198921632    0.93103467182385
C         0.99406445070227    2.21325543830493    5.24051430890946
C         0.42975617237309    2.63408839068857    6.59493310543267
H         0.30929229735353    3.71046174046878    6.66486975001975
H         1.11698236943985    2.32309100170687    7.38109345629470
H        -0.53180594484890    2.16082161616840    6.77418270237897
C         2.20616587866308    3.05867135548810    4.86966540562636
H         1.98193337344390    4.12126565423606    4.91921422491542
H         2.54596786921346    2.81172041068251    3.86714379154149
H         3.02098148957225    2.85620200137967    5.56405199697602
C         1.41297277773266    0.74158036635443    5.30441383006083
H         0.57200337047881    0.12014514935344    5.60747978911381
H         2.21598972533259    0.60615870871435    6.02759867622294
H         1.77064845896649    0.41627722033542    4.32774585476143
C        -0.97487885241975    3.96844868123199    3.52488055593468
C         0.05583238649181    4.80316482038219    2.77193424359492
H         0.89027004735694    5.08397305046044    3.40770042468045
H        -0.40804854676401    5.71738179393392    2.40236929622024
H         0.43982193619588    4.24380277763321    1.92161536165563
C        -2.15398900912407    3.69515857603895    2.58620274653563
H        -2.97972627592885    3.23348878780203    3.12427272225131
H        -1.83301987317693    3.02573993388453    1.78067606314765
H        -2.51274079452886    4.62078019969362    2.13823587483355
C        -1.46788617049167    4.68991308440104    4.77343876715160
H        -2.03508621600329    4.01258628649435    5.40816860304948
H        -2.11626075598493    5.51764836913582    4.48642969702551
H        -0.63939491682850    5.10028435677883    5.34443480291554
C        -0.84693036006597   -0.02140771525572   -1.10396484179533
C        -1.34650185343956   -1.15445046109756   -1.99254701061644
H        -0.52078806028915   -1.67312090845863   -2.47195764552237
H        -1.98625370191168   -0.75068246925994   -2.77707801251733
H        -1.92393370623515   -1.87050225140704   -1.41189141981827
C        -2.01612205258910    0.89105652748510   -0.72068109261384
H        -1.68619416291314    1.60417423975903    0.04305942054996
H        -2.85066670270097    0.31139893550997   -0.33060196076110
H        -2.36570398790591    1.45435431128040   -1.58482368654040
C         0.20466018334091    0.82196442255706   -1.81698044670548
H         0.59876596112780    1.57653902977708   -1.13989567874933
H        -0.24486058053773    1.32730289223488   -2.67148851626363
H         1.02858279736223    0.21614669349863   -2.18212136624637
C         1.12443736428042   -1.93377728716255    0.43832709499914
C         0.61318862914415   -3.21572397766527   -0.21300487644098
H        -0.35518541179508   -3.49382481896691    0.19426081391145
H         1.31541657380909   -4.02441650743413   -0.01267199483616
H         0.52370460129781   -3.11111899871918   -1.28982831448673
C         2.35778660013235   -1.41003331224268   -0.28716898411971
H         2.65513865267882   -0.44723688491618    0.12016613638401
H         2.18060241977116   -1.30664655676505   -1.35463166298253
H         3.18517886061496   -2.10592165292762   -0.15176738852125
C         1.48999085896780   -2.21685267727561    1.89833854714216
H         1.80956899871568   -1.29469591923295    2.38354594756661
H         2.30643060275794   -2.93556079676530    1.95315999497936
H         0.63532751646856   -2.62947294068599    2.43173249989959

