73
CSD_code = ZOTBAN | q = 0 | S = 0 | Stoichiometry = C22H45BrNiO2P2 | MND = 4
Ni        5.12311318064288    8.34265735779376    3.09220241955176
Br        4.22051757033612    8.67274996894984    1.05978753664848
P         6.09030771827082   10.26920503607881    3.28945924504149
O         6.88044886736587   10.26039746026449    4.71069476721976
P         4.38227139574205    6.33464924201250    3.42566158460357
O         5.02166263650240    5.83049021287748    4.83342705018184
C         6.08951522382329    7.98734503003848    4.70993319509777
H         7.00996627530152    7.59567263407417    4.23218987848499
C         6.51502841475541    9.17353597267484    5.55890170629837
H         5.69082154987275    9.49932094854103    6.21155840049492
C         7.68678593264566    8.74635137185135    6.44531510268130
H         8.00398279620974    9.58265684754080    7.07142219119565
H         8.52854601566217    8.46441765698146    5.80872724270962
C         7.26473992467342    7.56359848270980    7.32112207130951
H         8.12049498663465    7.22405004117226    7.90710137489102
H         6.49424779374519    7.89848260843514    8.02055742272343
C         6.71353834746618    6.39419524423195    6.50077986537389
H         7.49584453166121    5.97385872036811    5.86468023440117
H         6.35917013363967    5.60376897892691    7.16532107700665
C         5.56508238602125    6.89003976976602    5.62064709880163
H         4.77489138344557    7.28276338547183    6.27639760903531
C         4.83263593963788   11.66461249258303    3.54630296317885
C         3.64396571692760   10.94133824389753    4.19199674345854
H         3.31000821385720   10.11414541628413    3.55299597470531
H         2.80193173193742   11.61962231065399    4.32387650663447
H         3.91526205700502   10.54531769381017    5.17168208049418
C         4.38146005025324   12.28334772675687    2.22754572731976
H         4.14318601743310   11.51623243304836    1.49403709071141
H         5.14734804595214   12.93884213894448    1.82125382006494
H         3.48679865424567   12.88256947612843    2.39418408857953
C         5.34528477672301   12.74224421083713    4.49694906441812
H         5.73063822903732   12.30548071856349    5.41579222846526
H         4.52691652727022   13.41406494547743    4.75470476830372
H         6.13602976209405   13.33170712563026    4.04244999820931
C         7.52993503773614   10.76270765353061    2.18394433766972
C         7.10809438545093   10.95945661669229    0.73121236210361
H         6.51900107318350   10.11866381595164    0.37372001928552
H         7.99698011303933   11.04077475790683    0.10641356946305
H         6.52263065886917   11.86277334941590    0.59732016016583
C         8.24054800237858   12.00184395199310    2.71678136215225
H         8.40683534124137   11.91953011647484    3.78859238546636
H         7.66281795072765   12.90021501778525    2.51432582701865
H         9.20706237480663   12.10829398998463    2.22496091083700
C         8.46463309773380    9.55091614308466    2.25710831638838
H         7.93605812474868    8.64906141521133    1.93977738062670
H         8.83469438312933    9.40710908255625    3.27079740378627
H         9.31942846482136    9.68875804723256    1.59680303131951
C         2.53737418827408    6.07906601990578    3.74283075724138
C         2.21894766163142    4.63042939569133    4.09267442400818
H         2.93212128554315    4.24653496671721    4.82002224334995
H         2.23631359558979    3.99948702822030    3.20787033425941
H         1.22075394799267    4.57006891083866    4.52615910439684
C         2.23640399851332    6.97575113724616    4.94849000975611
H         2.64406143624366    7.97779323313637    4.78923799558120
H         2.66546905737978    6.56109455414376    5.85894515770290
H         1.16087409037674    7.06957805809036    5.09157321642227
C         1.69782874454355    6.55670675723571    2.56268826174400
H         1.89626781539837    7.60329534977657    2.34475525685585
H         0.64019265454114    6.45412764832995    2.80310913991377
H         1.89880934546336    5.98659284695864    1.66177462117562
C         5.10251777601864    5.02737624456322    2.27215479478721
C         4.30359575016525    4.90813553035378    0.97854838308523
H         4.12657024954171    5.88500816782819    0.53359691277603
H         3.34851248026374    4.41756497184348    1.14896916039045
H         4.86200219191175    4.30648628077872    0.26198262111857
C         5.25212028054811    3.66331024769297    2.94081191617522
H         5.69223165319094    3.76104570416531    3.93023422633117
H         5.90735526537623    3.03859129910320    2.33433811558548
H         4.29774256314625    3.15497982066735    3.03517478935368
C         6.49602297333016    5.58180296760399    1.95266888873008
H         7.11757544290063    5.59186822262157    2.84804883510453
H         6.42118662572729    6.60092186392089    1.55671482870863
H         6.99238713172811    4.96884691136384    1.20171081086533

