41
CSD_code = ZOTMON | q = 0 | S = 0 | Stoichiometry = C13H18N6O2SZn | MND = 5
Zn       -2.96847756518745    5.08916343937963    5.25242774503968
S        -5.39931069288855    5.23995119377168    5.36130020801326
O        -0.84591474797149    5.87103737168276    4.77011197732777
O        -2.57858363613366    7.07801470837106    5.31813716117478
N        -3.45993972184900    4.24731542458374    3.41874801169368
N        -4.58660171688213    4.63436313982206    2.84890028147500
N        -1.69326923834737    3.34028947980234    4.97180195843106
N        -0.78587240418533    3.20260141759182    5.94087832190396
H         0.16574717377994    2.91428277509004    5.72472781423352
N        -2.13281548633264    4.61557146629211    7.17955473171539
N        -6.55590862787952    5.76272536170423    3.09258714102798
H        -7.23682810959385    6.13747126545517    3.73433791689241
C        -5.45804883241637    5.22538162154569    3.64498847941061
C        -2.66085083063899    3.37075143296257    2.89670238116352
C        -1.54304725861985    3.00443235460117    3.74101260124742
C        -0.99247552180878    3.92634417350239    7.08378314263419
C        -0.04800103414853    3.91043570682232    8.11903192943247
H         0.86845236920877    3.35225133310102    8.00333616434447
C        -0.31433085725631    4.62562644006216    9.26455780007139
H        -3.31637972928995    5.83980943751879    8.30087686235319
C        -1.50931823603234    5.33437217637930    9.36018509008065
H        -1.74837076494079    5.90423301010329   10.24268238900998
C        -2.38005386402898    5.30047165403480    8.28942284029250
H         0.39698522272336    4.63761290786182   10.07694357750724
C        -6.80660002533254    5.85678305526819    1.67979368911545
H        -5.97251420439083    5.39323140507943    1.15936837792778
H        -6.88952727339557    6.90231221677050    1.37240431700706
H        -7.73260330784215    5.33786589802769    1.42008042511265
C        -2.88064314222286    2.76235793543668    1.54521404539736
H        -2.18173361925800    3.17732107458006    0.81889236259195
H        -3.89215122714303    2.99732975603145    1.22363391433841
H        -2.75283477647823    1.68226042923259    1.57719458703316
C        -0.32378803652792    2.31212194639849    3.20738532407163
H        -0.14191862236672    1.38246136861526    3.74772613695522
H         0.54176807760666    2.96315870205275    3.33803149310761
H        -0.42817380522899    2.08935976433024    2.15181651644833
C        -1.37024330113257    6.97325859841951    4.99843207917729
C        -0.54325292440182    8.24255043127858    4.89358653896247
H        -0.33391040430101    8.43637640427561    3.84364739556285
H         0.40221576186298    8.10559218892880    5.41256772803364
H        -1.09347505872874    9.07754953323060    5.31578854268081

