39
CSD_code = ZOTMIE | q = 0 | S = 0 | Stoichiometry = C16H18AuClNOP | MND = 2
Au        5.66358186369739   -1.51522179675204    5.09922001829437
Cl        5.49287098135497   -0.77949657978904    7.24334504695427
P         5.66058182751097   -2.45917526710294    3.06261875928212
O         8.30319491591638   -3.83498922797698    5.14372025414637
N         6.66110219649397   -4.32571383167453    6.61379695539023
C         6.21519680409626   -1.47813029863988    1.64472318148232
C         5.51813524268252   -0.28905454172285    1.43264211022985
C         5.87337017445915    0.54914719124200    0.39477573221506
C         6.93416495224503    0.21070318829617   -0.43194144968068
C         7.63782627955957   -0.96174758947104   -0.21473298506282
C         7.28626286384278   -1.80838630104858    0.82308050124090
C         3.99773388333098   -2.97533929693118    2.54320884462953
C         2.96273361926885   -2.98797460361087    3.47013780692551
C         1.69952662300701   -3.40756362172817    3.09104901935352
C         1.46672530028948   -3.80779728237308    1.78593890043381
C         2.49600944181871   -3.78934543670894    0.85675577540419
C         3.76005576302336   -3.37594133874244    1.23113916185117
C         6.58085144079387   -4.04363797091679    2.97957174663634
C         6.30797041213387   -4.82843956427505    4.26179437227550
C         7.18892050183612   -4.25809233260168    5.38053672481064
C         7.32818987999733   -3.77233181658882    7.77253581517596
H         5.69841144907323   -4.59560839541881    6.73833832902888
H         4.69709227606615   -0.03640173303725    2.09271947163461
H         5.32981686385024    1.46754576640664    0.23085603699613
H         7.21533721579926    0.86555023873041   -1.24295028537342
H         8.46867646627144   -1.21873063213778   -0.85504614254409
H         7.84590631252158   -2.71681914262862    0.98816659886537
H         3.15445171535472   -2.65818816230512    4.48427417116042
H         0.89683618386205   -3.41722832496872    3.81300523082682
H         0.47997698489864   -4.13002927652749    1.48913298661140
H         2.31028113084683   -4.09567925111451   -0.16205910714489
H         4.56517804084289   -3.35077895902597    0.50869746120489
H         6.28187257548404   -4.59675244933679    2.08295946289242
H         7.65289012573984   -3.82118234695605    2.94654455969585
H         5.24937208026169   -4.79134471947007    4.53297507508872
H         6.59092218848908   -5.87540562268716    4.12411990487249
H         7.30582595826107   -4.49092282025636    8.59154957935734
H         6.84431702748001   -2.84357923182855    8.08211505876268
H         8.35793043753747   -3.56231661831970    7.49218531607508

