38
CSD_code = ZOTMIH | q = 0 | S = 0 | Stoichiometry = C12H17IN6SZn | MND = 5
Zn        0.51750900892855    9.50541517490897    4.42445407538784
S         0.40631795935972    8.00654919926010    6.33089166741459
N         1.41536798538303   10.73188075519681    5.81283628848469
N         1.21177004926120   10.49415548516733    7.10167814110519
N         1.90287513736734   10.80858908235182    3.32521391341617
N         1.93065382156091   10.52555620579160    2.01349971180058
N         1.35732418506658    8.40212503522733    2.75287561197777
N         0.41064930679116    9.07290093024366    8.68981268097171
H         0.01661384333635    8.16755921003177    8.89484242512542
C         0.68916836238502    9.32086571496008    7.40111940246270
C         2.08480386991499   11.76556929196410    5.40313838786572
C         2.29577979069481   11.85176090505887    3.96900601329918
C         1.68407842246223    9.20138686066945    1.72801740187890
C         1.81510580168166    8.69592014432390    0.42637151699116
H         2.09209323136018    9.34010406236317   -0.39084636060064
C         1.60471116765370    7.35145275738661    0.21319764199418
H         1.70170243771061    6.94171974524584   -0.78087261569088
C         1.27534592127277    6.53000913080775    1.28627397680549
H         1.10966963635015    5.47409101921886    1.15397359023876
C         1.16203370918873    7.10824159431369    2.53371238162224
H         0.90115267704483    6.52513670978456    3.40629533006336
C         0.52266257640317   10.03046070298032    9.75700909014726
H         1.06686846775215   10.89322170207412    9.38081411502790
H         1.06439566383214    9.59112500025540   10.59693767048851
H        -0.46573363665020   10.35001016562598   10.10007372525278
C         2.62048598857728   12.80134874925533    6.34235154779416
H         2.28198640462229   13.79572763350041    6.05681871166868
H         3.71016933717290   12.79237869219630    6.35542849938698
H         2.25927870324972   12.57405314481246    7.34210932895353
C         2.97358459624762   13.07164641632200    3.41281938789009
H         3.46555162425830   12.85776082488892    2.46873409433613
H         2.25508031320395   13.87881818005840    3.26733041546933
H         3.72517355326517   13.42095131884363    4.11560364551861
C         1.81831468802249   11.52792094207162    0.97006402275126
H         1.46389750382019   12.45643885197557    1.41080888096292
H         1.07332034898404   11.20890419681878    0.24086059763029
H         2.77170530805230   11.69803942722335    0.46365060123244
I        -1.57386776558832   10.46790503682189    3.33899448287410

