121
CSD_code = ZOTPED | q = -1 | S = 0 | Stoichiometry = C48H68LaO4(1-) | MND = 4
La       -1.61317212594703    1.64127966203183    4.92773019765224
O         0.08559573024961    2.68557934272634    5.63292733645543
O        -2.29547318680853    0.59706231108507    6.63574862779512
C        -2.36151971844446   -0.67971339373618    6.93056486392855
C        -1.72424966716807   -1.16466788350098    8.10224872467732
C        -1.84603636127887   -2.49634897718370    8.44809515997117
C        -2.56081212231552   -3.37677100078351    7.65275570233291
C        -3.17623093880589   -2.91803527243507    6.50068298956686
C        -3.09355555043863   -1.58962700694088    6.12516061453436
C        -0.95996128098076   -0.15403583087539    8.92669256836901
C         0.06249408757964   -0.76634882434527    9.87998428576381
C        -1.94842870638903    0.72484896153675    9.70075147325466
C        -3.81187619149307   -1.03591702069034    4.91428477055614
C        -5.10876768180907   -0.35479694008456    5.37066319162681
C        -4.10885435382817   -2.07475529210011    3.83672565093920
C         0.34299634826562    3.96080537538863    5.80256025241057
C         0.28199500343521    4.87910217357812    4.72308780871769
C         0.61135191012356    6.20512048771260    4.93706585458128
C         1.00369906019693    6.65339717569660    6.18672471781185
C         1.06686608802572    5.76515550068298    7.24776594024000
C         0.73160242698794    4.43553556509052    7.08232279874581
C        -0.08500699694898    4.33691320399783    3.35924015649403
C        -0.64808341534491    5.38482360175597    2.40354895682210
C         1.14472394239910    3.65774704817197    2.74245260552223
C         0.77845458180306    3.41664153949386    8.19803744262836
C         2.02258569604509    2.53686965445036    8.03427196175139
C         0.73694328090020    4.01889927917571    9.59967177713077
H        -1.37501428808030   -2.86742726587419    9.34717658410045
H        -2.64087233854338   -4.41847308358120    7.93275390794320
H        -3.73313903658421   -3.61608610342120    5.89301123162218
H        -0.42934261463356    0.49244236193354    8.21448792296248
H         0.67192016273494    0.02082587187383   10.32235127437330
H         0.71960001779201   -1.45599901671004    9.35434304347326
H        -0.43017392526300   -1.30233560285194   10.68957042818743
H        -1.42195745867221    1.49184440232442   10.26730817564047
H        -2.53466602417232    0.11872851391744   10.39093233418588
H        -2.62305100237684    1.20921778122908    8.99944579768967
H        -3.16814201855571   -0.25024333879578    4.46406375016025
H        -5.62023801924574    0.10247421291446    4.52508182414717
H        -4.88094309880593    0.41957623966082    6.10037042773625
H        -5.77381225558113   -1.08521119066391    5.83203686158581
H        -3.20811752499315   -2.62351202145391    3.57298956566620
H        -4.48090309269512   -1.57705194502645    2.94350142535082
H        -4.87032241704787   -2.77703497191995    4.17326184670373
H         0.56919213477130    6.90953274285013    4.11927789183080
H         1.26255457700784    7.69329822662308    6.33354427514040
H         1.37810329999453    6.12854764736867    8.21677680321171
H        -0.85824943593914    3.55175026499307    3.50052491305255
H        -1.46362422434028    5.93191840628027    2.86998664009834
H        -1.03090146866028    4.89540145409415    1.51031661843218
H         0.12568671438705    6.08767038227182    2.09762913835794
H         1.50587398824610    2.87599829738676    3.40761312459202
H         1.94163836094853    4.38694934223547    2.59470673870760
H         0.89432281154448    3.21020135396388    1.78185208515952
H        -0.10209549827746    2.77240744074154    8.06915952048854
H         1.99868728888637    2.06028001593543    7.05762753445025
H         2.05275144934748    1.76375045903199    8.80096791278250
H         2.92658457833401    3.14075955673902    8.10874131925727
H         0.62196821921708    3.22640081336477   10.33819684065501
H        -0.09859584862817    4.70826560632801    9.70176166769508
H         1.65912516102053    4.55284227877056    9.82317503993939
O        -3.31211876595465    2.68558694265037    4.22318640508063
C        -3.56914962137097    3.96083137966652    4.05327685344001
C        -3.50778971206756    4.87936335356205    5.13254109617240
C        -3.83662071990359    6.20545395121111    4.91821248687549
C        -4.22881870566739    6.65357112413159    3.66843691634927
C        -4.29241428459305    5.76509090424559    2.60762560158212
C        -3.95766177943999    4.43538312826272    2.77340713909529
C        -4.00502633301100    3.41617854435949    1.65799423691433
C        -5.24951998154171    2.53698358782105    1.82212112685982
H        -5.22581535013953    2.06078438072823    2.79896132250404
H        -5.27999762302239    1.76356040510908    1.05574266598913
H        -6.15327465336063    3.14120758631494    1.74739779871715
C        -3.96338373518168    4.01801690824486    0.25618231242053
H        -3.84893108939205    3.22523875285757   -0.48211953402966
H        -3.12749096814551    4.70690835758452    0.15377385888612
H        -4.88531385578294    4.55237995882695    0.03263711754433
H        -3.12473672083089    2.77160815385850    1.78700025880112
H        -4.60366695358924    6.12829550871261    1.63856596388595
H        -4.48732505090970    7.69350590155972    3.52139146602399
H        -3.79414141299689    6.91008048377904    5.73579655096189
C        -3.14085771095865    4.33736503578806    6.49648521985789
C        -2.57804274873471    5.38545380526599    7.45215505619951
H        -1.76230386763581    5.93242344019604    6.98589957639315
H        -2.19557648045416    4.89619587375436    8.34562602761412
H        -3.35190313129973    6.08838297822578    7.75765793463764
C        -4.37053422944154    3.65802683753627    7.11322308519587
H        -4.73137368536282    2.87599580376760    6.44821430473692
H        -5.16765301915403    4.38706359202025    7.26067435133873
H        -4.12013945412251    3.21080355647261    8.07397442400462
H        -2.36750100241698    3.55230312169766    6.35537174722474
O        -0.93141079491931    0.59704028233294    3.21939584666378
C        -0.86486851680596   -0.67967646188484    2.92443104670979
C        -1.50201292617832   -1.16477700087424    1.75273273756707
C        -1.37969524260552   -2.49636861915843    1.40673164692008
C        -0.66450745675684   -3.37659628912603    2.20191346268966
C        -0.04923913886651   -2.91773744807688    3.35400758404404
C        -0.13246088873238   -1.58940917619675    3.72969508160739
C         0.58568794563625   -1.03564984078368    4.94064889823969
C         1.88264783384955   -0.35457889555745    4.48441495493537
H         2.39392882374045    0.10287032733229    5.33001288224852
H         1.65498068190641    0.41963416824222    3.75449087513322
H         2.54780468294778   -1.08507434506154    4.02333483512930
C         0.88249359700593   -2.07445938683495    6.01828400536779
H        -0.01824548478701   -2.62333346463413    6.28175716432702
H         1.25423646089887   -1.57673067572751    6.91162219028850
H         1.64413612463324   -2.77664374079414    5.68194780191816
H        -0.05811254567874   -0.24995757202580    5.39076753252457
H         0.50797306864927   -3.61561805297305    3.96159358978383
H        -0.58401657934575   -4.41822443200085    1.92176663986682
H        -1.85058308364367   -2.86753646113151    0.50761689837423
C        -2.26681752850513   -0.15443039673246    0.92841937465042
C        -3.28885662765116   -0.76719049848862   -0.02503557719252
H        -3.89877894826653    0.01968699783770   -0.46724444571960
H        -3.94553551408461   -1.45737756320938    0.50043338605753
H        -2.79581826092718   -1.30268395817680   -0.83472658341605
C        -1.27883774074860    0.72515461279171    0.15454164517243
H        -1.80574310839236    1.49183342390079   -0.41203476733849
H        -0.69210805843484    0.11946538131676   -0.53559950471948
H        -0.60462945526455    1.20993166276202    0.85596172820704
H        -2.79785570368121    0.49162149247486    1.64069480271230

