57
CSD_code = ZOTRUX | q = 0 | S = 0 | Stoichiometry = C28H16F4MoS8 | MND = 8
Mo        9.36161926198961    2.30902200774481    4.45812806913963
S         7.30804878542186    3.34121232256252    5.53788599327878
S         9.93609318322967    3.83781366788406    6.42163826658389
S         9.46335194523703    4.56221247844088    3.29227208547146
S         7.78566320503117    2.46011126932103    2.45369135613528
S        10.28759780854936    0.67083097950765    6.16488221197179
S         7.85105090382564    0.28165550627913    4.80590817903991
S        11.87364829488391    2.65712612837279    4.15092175201543
S        10.39304755269555    0.66046244984795    2.82503977258069
F         6.35573207831988    7.87386140662688   10.26276332253378
F         6.08408160170421    7.35242693839522   -1.66794812246474
F         8.46039241613311   -5.34436719936572    8.23924319869889
F        16.57515572064163   -0.64365572299341    0.85794640906130
C         8.30070532355019    4.20095240180747    6.59512603689917
C         7.79413837405822    5.15784022805996    7.54910976772531
C         6.41915646304918    5.40128812030972    7.64421168486121
H         5.74356203205429    4.86497016114101    6.99507292712325
C         5.93148241337583    6.31299733968128    8.55530602008739
H         4.87499878367782    6.51135479223709    8.64131131222103
C         6.82711389212734    6.98377476980089    9.37375599847611
C         8.19412713127732    6.76424089133576    9.30254769506999
H         8.85819309403058    7.30654506709531    9.95662871784357
C         8.67368486511207    5.85072414592410    8.38892497626326
H         9.73331192295947    5.66057021004361    8.31131941425898
C         8.26069949261462    4.05924062936016    2.22318661656432
C         7.69172988031633    4.91913384443334    1.21361575261979
C         8.14022818219633    6.23719376143574    1.07128909326833
H         8.91474053818715    6.60347366616102    1.72804520779162
C         7.60266527620790    7.05822794663323    0.10374373864884
H         7.93810161313540    8.07562232477311   -0.01969320188800
C         6.61046876575008    6.55514059894767   -0.72348236708257
C         6.14482472678185    5.25464130117050   -0.60567067417256
H         5.37109426639971    4.90079871469680   -1.26823718626883
C         6.68775567908449    4.44002328956976    0.36418033724872
H         6.34411522537368    3.42325067393870    0.47867633945923
C         8.97992553074524   -0.35484432112147    5.88144185769933
C         8.84742286655436   -1.65433365080896    6.49466874195562
C         9.83130318827885   -2.12861788529322    7.36969937993245
H        10.69167250427133   -1.51107917965869    7.57909487461734
C         9.70483411763614   -3.36837823477893    7.95825450083442
H        10.45375541637956   -3.74836184706928    8.63473148865349
C         8.58709405053509   -4.13527844291211    7.66751856659826
C         7.59649294765641   -3.69279058344135    6.80445383431518
H         6.74198178360433   -4.31921361282598    6.60366511910595
C         7.73072326788251   -2.45219408024250    6.21974108364687
H         6.97505696213943   -2.08244715755959    5.54355026123469
C        11.91252645817861    1.33187337636030    3.11230653814575
C        13.12624621694465    0.81489436238801    2.52742267980301
C        14.35685692519153    1.42097781510332    2.80544920101186
H        14.38426751911448    2.27580705743401    3.46386537700161
C        15.51833708166683    0.93403194842550    2.24602571701744
H        16.47426580407205    1.38979444900797    2.44953363727313
C        15.44513073664230   -0.16576087960261    1.40516071336763
C        14.24135722984720   -0.78775178886888    1.11184687609004
H        14.22601260005543   -1.64130546634166    0.45297653087210
C        13.08440463304285   -0.29448930789677    1.67517350748789
H        12.13365146055223   -0.75984968145394    1.46307881226357

