42
CSD_code = ZOTROS | q = -1 | S = 0 | Stoichiometry = C13H22CoN2O2S2(1-) | MND = 4
C         1.68424354456999    6.31741060457882    0.29542763672869
C         3.16371906472641    5.93749570089854    0.34399488452745
H         3.67921198550305    6.21987894215067   -0.58293967892813
H         3.64975838185402    6.44330619344869    1.19023578403376
C         1.44611505195594    7.77570191326751    0.66109834516689
H         1.82037808334518    7.98085698839494    1.66195352060361
H         0.38070595392168    7.99588056124586    0.64156948048039
H         1.95700996714032    8.42767264073967   -0.04730940355112
C         1.08387856794873    5.98215154044504   -1.06435030428541
H         1.50524511842003    6.62802239235093   -1.83453759720885
H         0.00300650460200    6.10828050432659   -1.04301145887733
H         1.30960346356035    4.94690776064906   -1.31393512565577
C         3.89058780489744    3.76793631516770   -0.37649250769640
C         3.61788583286424    2.26225927391956   -0.16735719372736
C         3.34282319127494    1.65898561501807   -1.54799143511649
H         3.30207402773880    0.57551427032240   -1.49076161855349
H         4.13688594565384    1.97346525616083   -2.22204992093402
H         2.39124119704721    2.02949159411135   -1.92679080869695
C         4.85283698659055    1.62031490609768    0.47395557526093
H         5.02090757450541    2.05511906268573    1.45960364801403
H         5.72518198639613    1.80075700548038   -0.15046728964562
H         4.68961283370516    0.54954887471615    0.57948523632946
C         1.81244877405367    1.00516843164804    0.85434982522919
C         0.48830856241062    1.10786337694658    1.62129120977183
H        -0.11712336492075    0.23806315160511    1.34929556783685
H        -0.02876717925156    2.02280498851263    1.31145644695031
C         0.67764662389884    1.13346702607455    3.13808029813717
C        -0.67157822835434    1.30526487625454    3.83170506676915
H        -1.13572310652259    2.23783967724111    3.51739159580307
H        -0.53292460222036    1.33771637851799    4.91055179079471
H        -1.33595466681050    0.47700870134220    3.58392760702589
C         1.37669857624724   -0.13142406016759    3.62465434818381
H         0.75133227926212   -1.00335721844038    3.43346295054492
H         1.57792217490567   -0.06308592012936    4.69223352774514
H         2.31936569041144   -0.26361804481322    3.09901419511488
Co        2.16552503992694    3.62457439973912    1.78402519877138
N         3.24191438590874    4.50200191232729    0.51458191587917
N         2.46358091109350    2.16406298539319    0.71783489156566
O         4.62449676952843    4.18295225239041   -1.27296768918292
O         2.17977331026845   -0.07988257330911    0.40494077395644
S         0.84354794781950    5.24953465267537    1.56178383479795
S         1.72219703412893    2.57778709001511    3.59755687604239

