45
CSD_code = ZOTXEO | q = 1 | S = 0 | Stoichiometry = C21H19N4Ru(1+) | MND = 8
Ru        2.58158435018307    3.60475775571276    5.95868625248683
N         3.21702706806821    2.77903782958778    8.62699474951790
N         3.77087671643578    2.83887673350949    7.39708085674833
N         1.37887807176359    3.64036148221975    7.58375869156728
N         1.94232556253631    1.82839064702768    5.54856736550475
C         4.13009282380764    4.73811403104676    4.78255287635390
H         5.20508079055855    4.62558794138624    4.79989499228697
C         3.37738580835989    5.64044529591700    5.59515672585765
H         3.79926996865892    6.39154668215447    6.24967090670858
C         2.03711930487015    5.62716983123704    5.11406261295424
H         1.25277075074725    6.30166938272680    5.43020650432729
C         1.93943429618905    4.67163466894641    4.08293180053671
H         1.08994036274476    4.52565182324444    3.43009552222776
C         3.25093171810533    4.12395516033210    3.87223143983500
H         3.53591891561924    3.48336037020619    3.04804880875670
C         4.10970694028952    2.28663742991470    9.52633819899469
H         3.86292165978360    2.14749426673430   10.55761787874552
C         5.27769319837300    2.01453341681878    8.84325020914667
C         5.00115445905668    2.38125063892754    7.50413089326170
H         5.64975728139977    2.33465581556327    6.65085469929596
C         1.90840192237707    3.21477546855779    8.75125776673422
C         1.20278514208991    3.22653049251909    9.94856007000470
H         1.66337157993894    2.87695048978161   10.85711518403101
C        -0.09776043638563    3.69806357434191    9.94196210131156
H        -0.67163415060843    3.72531055246992   10.85367154809865
C        -0.64878142377223    4.12952833673241    8.74008904779667
H        -1.66006291883715    4.49775816762691    8.69573582442295
C         0.11628968717411    4.07901309485496    7.59226302222143
H        -0.28730336513474    4.38635651377041    6.63648213018189
C         6.52616420378371    1.48206014268736    9.37126730143828
C         7.43604465495855    0.84290385202316    8.52987892206129
H         7.20788466539627    0.72510091053018    7.48143470029732
C         8.61990385754554    0.33946943026704    9.03492512202123
H         9.31590795698076   -0.15569255043357    8.37516746785037
C         8.91384860521772    0.46810728230062   10.38253263931058
H         9.83973525218323    0.07647747732618   10.77417954694936
C         8.01620038962206    1.10260123664216   11.22593665832809
H         8.24295804562654    1.20783257715953   12.27582552501657
C         6.83033815549638    1.60616241547468   10.72676256539020
H         6.14380239562619    2.11457121528068   11.38649610905176
C         1.11453294278692   -0.41318147104273    4.56684124089103
H         0.35267359779950   -0.83714364561895    5.22132354232373
H         1.94581441497104   -1.11385898189001    4.48441983322279
H         0.68388543180952   -0.25427841096972    3.57806438528628
C         1.57312934580058    0.83145062638883    5.09667576063374

