60
CSD_code = ZOTXUE | q = 1 | S = 0 | Stoichiometry = C30H26N3Ru(1+) | MND = 9
Ru        2.77780079260006    8.69339204589828    3.29291873369298
N         0.80672621977040   10.38502626093659    4.86775112626147
N         1.42679531134894    9.23197491268936    4.64841536212131
N         2.89262325068007    7.22255588801065    4.69681392309949
C         1.49592028928132    9.01635252943397    1.48147982718938
H         0.55604308037578    9.54538727829778    1.41102743385539
C         1.64023061736350    7.62426020925444    1.74667361742827
H         0.82915421796679    6.91362209647182    1.83448196498682
C         3.01545852150052    7.29053164315270    1.55199855645881
H         3.41848286214824    6.28741429197868    1.52997561495312
C         3.71628105415310    8.46913880039815    1.24594723776217
H         4.74561811638656    8.53047279547434    0.91896561435672
C         2.77254951039686    9.54958438658599    1.21289537030720
H         2.98460162760504   10.54912832273936    0.85685325599229
C         0.05617692566054   10.30244130684421    6.00298012375716
C         0.22617079354119    9.02550497407212    6.51459765577959
H        -0.23650859014289    8.61983405690306    7.38951631703525
C         1.11807769726301    8.38616877291340    5.64048109682398
C         1.93108974583637    7.19485451872986    5.65225902125682
C         1.84384201477951    6.16122323115133    6.58012349861924
H         1.05862638538050    6.17735913858728    7.31799912604345
C         2.77297204515619    5.14031784798105    6.53489790079600
H         2.73112910689907    4.32736943542942    7.24176338197352
C         3.76914436031147    5.18656017000405    5.56627405560294
H         4.52050205782201    4.41689542463236    5.50566643136413
C         3.79042679986518    6.23918980156084    4.67217003904729
H         4.56438623717151    6.30740642462426    3.91880187371491
C        -0.77015364677819   11.38793361988514    6.51203774910071
C        -1.50800245162290   12.20006318699685    5.65089483789405
H        -1.49296792969082   12.01316837645660    4.58692792265856
C        -2.29655724375946   13.21551957386566    6.15948431540684
H        -2.86940491185107   13.83515074993523    5.48687316147629
C        -2.35733668609369   13.43328465934675    7.52622521485573
H        -2.97196263749240   14.22795215274110    7.91910040622657
C        -1.63466010639422   12.62375239054923    8.38801770592521
H        -1.68489068527069   12.78741214354019    9.45330234512537
C        -0.84766878513138   11.60410510662974    7.88750325416017
H        -0.27598483645931   10.97889585105156    8.55638010460671
C         4.60647225233769    9.65401839119309    4.12254981890519
H         5.36603578996280    9.72406017477923    3.34159627207409
C         3.50576673180999   10.49050839344494    4.07205001323883
C         2.83280952326358   11.57818450435263    4.37200676855823
C         1.31441785528881   11.56345041132345    4.19648421716631
H         0.86622584320834   12.44728457295042    4.65019125905421
H         1.04589339136399   11.52562552003499    3.13440270687725
C         3.43986373504467   12.82830159847591    4.93546003277834
H         3.01022324784446   13.04561001304500    5.91283782430316
H         3.23514411673132   13.67376005383464    4.28051324533885
H         4.51449764288204   12.71517039317900    5.04127208881347
C         5.06399198541563    9.06188455179268    5.38742258268130
C         6.23351318968870    8.30244359483999    5.42127525874867
H         6.82440092378710    8.19340332223536    4.52313810993979
C         6.64370247948428    7.69271475651017    6.59268164273948
H         7.55254894651443    7.11078529263062    6.60389680658974
C         5.89400853654081    7.82876604251392    7.74856230533272
H         6.21337890188489    7.35106063456481    8.66153387240285
C         4.73668205473447    8.59274435030625    7.73170230366205
H         4.15689368871787    8.71297320884956    8.63452279785609
C         4.32448180502053    9.20584070870640    6.56602779852136
H         3.42641622789484    9.81100513468257    6.56099709670103

