85
CSD_code = ZOTZUF | q = 0 | S = 0 | Stoichiometry = C35H40CoF5N2P2 | MND = 7
Co        8.74346288159483   12.02353315307727    1.07990527882067
F        10.61847798971643   10.31284878527239    4.71930196103509
F        10.85860902996385   11.06039493509045    7.24343363139792
F        10.83080099481961   13.71525309280237    7.94832402085146
F        10.51720304556515   15.59958270738993    5.97472199966689
F        10.25891098969133   14.88988276703308    3.43865834423959
N         5.63285471154647   12.95321160835664    2.09285451232614
N         5.88839920301229   11.71208740496776   -1.24377622171435
P         6.99991752955822   10.73212870118304    1.10076665985802
P         7.46044505784282   13.48373527540015    0.09051517540019
C         6.84578579784341    8.93435978828870    1.68560227724005
C         7.19741599066080    8.86007472668298    3.17207595237127
H         7.32214832920994    7.81998961059750    3.47091541020550
H         6.40774515655739    9.28559038058672    3.78873454678788
H         8.12902451852744    9.38062881347885    3.38089389192802
C         5.44780407893733    8.34596315143227    1.48507775079635
H         5.41534371583969    7.35824415529437    1.94337394342112
H         5.19914937658015    8.22074758856356    0.43425568445695
H         4.68039475647785    8.95534940696323    1.95652813740947
C         7.86895968596896    8.12283368749761    0.88993000902652
H         7.89628948529696    7.09645758306363    1.25309105278520
H         8.86145106555743    8.55092083608340    1.00400268768943
H         7.62102449980694    8.09884397311072   -0.16908783453525
C         5.46250427578580   11.55838574740561    1.79577134432730
H         4.65910718542144   11.47800759710377    1.05505426455588
H         5.15551190136026   11.04538424052775    2.70992896263901
C         6.92040563424842   12.41043415794759    4.09358772556400
H         7.05254390026310   11.39499052146316    3.76037235569527
C         7.41244647746986   12.77583492981503    5.33244704881679
H         7.88524761916715   12.02891064666209    5.95312485989140
C         7.29927495258284   14.07936249303286    5.77950913007977
H         7.67818728779085   14.36410052923419    6.74891612008060
C         6.68588795304404   15.01578075335613    4.96429151813026
H         6.59521597876575   16.03991343240572    5.29457358622735
C         6.16657608122214   14.65071615636035    3.73901481839133
H         5.64940929675556   15.39635934635344    3.15452347948696
C         6.26817197589237   13.33428424230416    3.27764784431011
C         5.80555802166284   13.77887777663489    0.92971873928356
H         5.75115652384644   14.82530883806895    1.22325230356060
H         4.99647481129375   13.56313963104122    0.22194186260533
C         7.95643524797991   15.23238197052208   -0.42515555346527
C         8.27165453734109   15.99330590925048    0.86418759458858
H         8.87076015527062   16.87533949169931    0.64579171519985
H         8.82763423049744   15.36534246169836    1.55635512827085
H         7.36500164242241   16.32341318814363    1.36519594286389
C         6.87945089064942   15.98047437322821   -1.21457766610243
H         7.13492628982038   17.03903517457548   -1.23658774404715
H         5.89450389873183   15.88501867876347   -0.76313050737268
H         6.82698690524462   15.63850892571482   -2.24574902542948
C         9.21845712037758   15.12531924855320   -1.28015551323726
H         9.52872112534328   16.11474998388428   -1.61333774006647
H         9.04332073492964   14.50917526978744   -2.16095734636214
H        10.02909425228698   14.68900221906866   -0.70584322489946
C         6.79445926069355   12.79600345809617   -1.51608280958239
H         6.24764537680955   13.60084411926021   -2.00750159683572
H         7.63797192031255   12.48045871544898   -2.15016900754877
C         4.56621659083734   12.19611325600944   -3.25052046236299
H         5.35693859462908   12.79713559822800   -3.67238723246650
C         3.39162657443806   12.05325306503750   -3.96545605238817
H         3.28698156705854   12.56087879143671   -4.91321357084716
C         2.36441225537574   11.25921753410451   -3.48847984082213
H         1.45089701459313   11.14819761508414   -4.05151304328373
C         2.52821135572709   10.60548334731297   -2.27890099547596
H         1.73710966809112    9.98187761042101   -1.88893336973779
C         3.69394106993186   10.75069561662789   -1.55459179178501
H         3.78523574061639   10.24285240680302   -0.60581070240447
C         4.74111655901046   11.55111778819511   -2.02415612981534
C         6.51735931902756   10.53427843196569   -0.69949468543003
H         7.45255377612464   10.32670214309745   -1.24501721368614
H         5.85244533069314    9.68114078683766   -0.82821653951919
C        10.39607955297434   12.17125427629632    2.53694778232959
C        10.22688924252910   10.85499150961702    2.00594639369515
H        10.13874068709995    9.95179240041768    2.58432151259584
C        10.51995011777493   10.86612607630453    0.61865286741437
H        10.63970475601815    9.99368299835103   -0.00362544696384
C        10.74050310588380   12.19170652856374    0.24266442902484
H        11.07352907796589   12.53380518768221   -0.72399939257580
C        10.59000380907169   13.00585988459472    1.39647319156003
H        10.85344381250494   14.04956918587946    1.42599482873424
C        10.45666377242952   12.56154948364176    3.92180201131030
C        10.59846227170341   11.63527657398584    4.97358312657427
C        10.72401548804921   12.00606201334662    6.30142794203497
C        10.71038135296509   13.34747388067559    6.66448195455977
C        10.55498304060165   14.29669436504359    5.66064886578175
C        10.43288314042788   13.90668528479378    4.33971408288208

