75
CSD_code = ZOTZEP | q = 0 | S = 0 | Stoichiometry = C29H41CoN2P2 | MND = 7
Co        8.38142267238644    3.93769646006352    4.18992248583623
N         8.64523358913310    5.57568514660698    1.25925241993873
N         6.74814419577995    2.54098656050059    1.12577400469577
P         9.17534361391815    3.07338812421434    2.37909543653669
P         6.71688585242535    4.55477603286231    2.94938601246098
C        10.73240514790807    2.00905781723134    2.16385324667883
C        11.90504286465517    2.74304381806206    2.81408194861965
H        12.76688042719354    2.08077389969728    2.89270795159888
H        11.63637933956274    3.07594173959457    3.81369884910130
H        12.20654060608081    3.60614260802988    2.22283697357571
C        11.08921327833816    1.69751289757283    0.71041291309272
H        11.98144301059226    1.07215057336522    0.69410996111999
H        11.30654056200983    2.60107975310802    0.14590516596958
H        10.30041195189349    1.15144667556393    0.19882811268719
C        10.47185205208201    0.70753313779467    2.92673569139441
H        11.40521756629731    0.16919159526554    3.08644935597590
H         9.79759896363357    0.05295114926650    2.37937251201786
H        10.02941072425256    0.92295343169388    3.89789048185144
C         9.29994477717432    4.32600411168352    0.98018634064948
H        10.35099885527645    4.52719156920409    0.76246037511922
H         8.83023194036863    3.90319520353357    0.08534387987104
C         8.76959639287924    7.81318393082883    2.17615670797235
H         7.88546794704724    8.09588227312943    1.62388682933738
C         9.40272789920492    8.77129931187496    2.94126105496420
H         8.98405837085874    9.76629083728612    2.99604692673110
C        10.56791203965088    8.47154541666057    3.62644552639396
H        11.05976836325802    9.22279295737212    4.22561958251641
C        11.09243308870474    7.19636550703931    3.52454385087279
H        12.00448659465722    6.94535318592031    4.04712113405924
C        10.45768429935452    6.22923696471361    2.76838208069322
H        10.88184007882628    5.24030254066773    2.72896945474412
C         9.27424496080714    6.51077657684608    2.08588546541291
C         7.21496597795136    5.45869742603531    1.37694749497801
H         6.83049643612047    4.91880917291578    0.50469853258017
H         6.77414700960304    6.45287184298616    1.39292766453357
C         5.20904907843730    5.53915646646290    3.52753575863654
C         5.75431156816779    6.74313152208616    4.29486310689536
H         4.93878366394087    7.37259998767508    4.64912348800246
H         6.40528968188922    7.34410626197735    3.66103698686788
H         6.33731253504798    6.41557713067696    5.14987376976495
C         4.28792751896680    6.03703234183759    2.41224982339524
H         3.37980567677478    6.43700112506923    2.86234674383690
H         3.99423613855218    5.24520344234356    1.72693079531317
H         4.74609352322091    6.83618796777325    1.83537618571198
C         4.42204184942115    4.62390638714709    4.46814529682118
H         3.73869014295733    5.20789118815178    5.08319544977628
H         5.10092388983632    4.08325148341659    5.12552723900689
H         3.83698591040810    3.89759587015821    3.90737781477590
C         5.87719397238024    3.09696567509156    2.12526834110852
H         5.61203527351026    2.35785212441632    2.89686723665881
H         4.96892058793894    3.46521273558786    1.64792166348489
C         7.10802894622264    1.94648884111186   -1.18803963728325
H         8.16857897756266    2.11027226760123   -1.06553242882210
C         6.63138633670124    1.58154453480999   -2.43035179070414
H         7.32663937115962    1.45732455852697   -3.24796204754454
C         5.27596364305929    1.38760208479753   -2.63650304702607
H         4.90420385226408    1.10723317443730   -3.60979760199608
C         4.40714720005602    1.55525174685526   -1.57315053809779
H         3.34756010151666    1.39502807749018   -1.71085227635312
C         4.87767667894408    1.91158373312824   -0.32352870089083
H         4.17116062490778    1.99840498140853    0.48776050840075
C         6.24163769207916    2.12252970399383   -0.10226761456673
C         7.91427367307614    1.88609483695715    1.66217935092384
H         8.36705154289507    1.26908691401387    0.88637800133335
H         7.61617895831638    1.22701770669513    2.49462024208630
C         9.95264364172145    4.48371960610349    5.63353597365923
H        10.95941711432005    4.84044374239439    5.48845558496122
C         9.56934426160045    3.10442032256338    5.74093080180833
H        10.26613134497793    2.27819482300611    5.74331839924999
C         8.23367855748121    3.04036828045858    6.17058520686843
H         7.70011742527850    2.16015039554004    6.49164270623222
C         7.74685527792542    4.36246720306329    6.16361610081710
H         6.78939100461286    4.66773183964834    6.56088976781803
C         8.83502807122727    5.25746930764132    5.89904430339083
H         8.80123324075616    6.33208935869259    5.98069261109205

