84
CSD_code = ZOVBIX | q = 0 | S = 0 | Stoichiometry = C34H40CoF4N3P2 | MND = 7
Co        6.71998837911625    8.77229270497543   17.54950432076615
F         8.67236979160233   10.27460205067137   21.17868716168843
F        10.83311111418000    9.55222661614645   22.58455072190314
F        12.83677618893483    7.69006556499837   19.01151811510858
F        10.81091324066284    8.30893784863524   17.37365974099447
N         3.74417192082863    6.95518361437223   16.32930864111234
N         6.31499144281521    5.50768997507579   18.34047754413978
N        11.83014584787681    8.64043133637749   20.78521203622712
P         5.00108911493626    7.94836994006020   18.59446378189284
P         6.44750381878239    7.14428889615314   16.12191282447344
C         4.08249568155284    8.61815171340905   20.11357402188807
C         2.86583344046874    7.77669495751559   20.50480131968503
H         2.47452630468446    8.14731008041725   21.45141949615328
H         3.12490046346816    6.72924690412860   20.64070975686418
H         2.06259168002025    7.84731652152034   19.77572657524140
C         5.04133314507905    8.67135641831671   21.30390205057935
H         4.60193376471415    9.26485887715580   22.10472541483012
H         5.98620722456982    9.13346483525343   21.02782475949423
H         5.23510188277405    7.67743034487439   21.70307900383035
C         3.64145738153675   10.04150440257977   19.76989541287342
H         3.16580625328368   10.50341604837195   20.63386993250474
H         2.92880833744069   10.05156788721186   18.94797607550312
H         4.50135697591342   10.64527946206912   19.49197346695664
C         3.61350578881445    7.98085907982377   17.33502802287566
H         2.64773324840567    7.87624927802018   17.82784497334909
H         3.65187158554993    8.97524850888746   16.86047839394836
C         1.80379064310616    5.66607922282191   16.96783785664069
H         2.06604019129011    5.79670822535756   18.00743326083294
C         0.68894561373193    4.91778338693427   16.64847346764764
H         0.09622456720968    4.48573098909566   17.44136615590590
C         0.33555235416976    4.71054439657242   15.32573551254274
H        -0.53386762673916    4.12212451384607   15.07738404603209
C         1.11155653332412    5.27216998042292   14.32805029265554
H         0.84405612774153    5.13117122385532   13.29105999470218
C         2.22439214151710    6.03101414919136   14.64013707962667
H         2.78539822107067    6.48029118914371   13.83523000874078
C         2.59733975666868    6.24008117871549   15.96918757638444
C         4.75273671630247    7.22313068163289   15.33859337873131
H         4.61952375459249    8.20987387399059   14.86715142127080
H         4.71483956830519    6.44451522868247   14.57618964394457
C         7.53822449999095    6.78860738600810   14.62102330946595
C         7.03356977671795    5.64174653676720   13.74185771944022
H         7.83484169816330    5.34012455466238   13.06866674007081
H         6.19119857200468    5.94780014848570   13.12571362037992
H         6.74294791988671    4.77075245557551   14.32489974797375
C         7.60940730871858    8.06450310016244   13.78269857623170
H         8.22800602808966    7.89769645436261   12.90203674036738
H         8.04662622425063    8.87417331881729   14.35748848044094
H         6.61854943886503    8.36912983237442   13.44900451366375
C         8.92787546358579    6.44632223010714   15.16258845015374
H         9.67907638972308    6.57262982464714   14.38530852841658
H         8.97771971247429    5.41666672881842   15.50773206046603
H         9.18925623116429    7.09308239682849   15.99711290292359
C         6.27928518396641    5.44603150972963   16.90501525609487
H         5.32733382287021    4.99838994048215   16.59650749171267
H         7.09528383389137    4.81903236318553   16.55143300082637
C         7.70425749461073    6.49513003057433   20.08568315387098
H         6.88978813855000    7.11694145479971   20.41405006386245
C         8.89110744612623    6.52943008898322   20.79386247622328
H         8.95927889404796    7.14552048666226   21.67835447534241
C         9.97866872063675    5.77997405616626   20.38519341321366
H        10.90551970277125    5.81105604720897   20.93631496494808
C         9.85528845585018    4.98729557389138   19.25639716193620
H        10.69508719780340    4.39869693698324   18.91796423799766
C         8.66100292999382    4.91915384405051   18.56761764354189
H         8.59164885976200    4.24454123268868   17.72835047579807
C         7.55311755253851    5.67313116220468   18.96880869731206
C         5.14285724314470    6.10322925459943   18.92001907378945
H         5.15353054583006    5.91875717516035   19.99645954565369
H         4.27127757257408    5.60442960992308   18.48232878622150
C         8.51539093645553    9.79716239495036   18.32597947108962
C         8.45845028724899    9.77771282944542   16.89778182298657
H         9.26089135912943    9.47232999654045   16.24825591332705
C         7.34656684074270   10.54190736272289   16.46533810448816
H         7.15429935158450   10.84842494039362   15.44963004642835
C         6.62646231105284   10.93394028453919   17.59765047001837
H         5.77398834744627   11.59414808732343   17.61645682926222
C         7.29074677092353   10.41401123952904   18.73487580628941
H         7.02462565625764   10.66994415418133   19.74578495686558
C         9.60160869084643    9.37176663698022   19.15467745099514
C         9.68098621666365    9.64604034642642   20.53924105355683
C        10.78635185562776    9.27322170995750   21.27840659443908
C        11.78339486442861    8.34931661310876   19.50115169549786
C        10.73565107266856    8.68183556172808   18.66722521587633

