32
CSD_code = ZOVDIX | q = 0 | S = 0 | Stoichiometry = C7H16N2NiO6 | MND = 6
Ni       -1.11232277024111    2.56633901491826    0.89198136545955
O         0.93319847137486    3.55961315160085    0.37596818304134
O         0.26984650937903    1.66787440034876    2.46604525714701
O        -1.29624635889640    4.00221709049123    2.01029990040358
O        -2.58017539853828    5.29645398729247    3.24532718221319
O        -1.36514838557686    3.46288684313503   -1.15955463343997
O        -1.97024409025637    2.58221059100417   -3.11752158700831
N        -3.22363197915986    2.62969249341254    0.94057535237204
N        -0.95882433370228    0.96450105891603   -0.15422238899007
C        -2.43102474049478    4.36287977202750    2.48952731044841
C        -3.62288870450359    3.45679883165350    2.08193219715498
C        -4.05686287912911    1.45771698863174    0.71185903297572
C        -3.43402849380192    0.55054633817361   -0.34961368629478
C        -2.06011484944458    0.01675499875390    0.07098302339437
C        -0.70919579386476    1.21253111357751   -1.57856520388766
C        -1.43647289224017    2.55377798171380   -2.02798373359677
H        -4.51076447188477    4.06530379736286    1.87648986101383
H        -3.83969316556447    2.81425994746164    2.94133995328620
H        -3.24837137785220    3.21927167697376    0.09953013145739
H        -4.14480556141011    0.90885433567451    1.65608506433157
H        -5.06718438695331    1.74862926216995    0.39127247017111
H        -4.10127707141487   -0.29641212010183   -0.51469641374078
H        -3.34533111164655    1.09442879217874   -1.29113235113935
H        -1.85723956497960   -0.90208841530939   -0.49571386871270
H        -2.07793078379776   -0.23786719308271    1.13619951325970
H        -0.12255072691156    0.54786923919864    0.26052065320891
H         0.35793472843496    1.37155289648622   -1.74564401640237
H        -1.05305287827913    0.38447918056113   -2.20284209110445
H         0.51887407028825    3.78042817638764   -0.47808074207945
H         0.81435927524663    4.35630403031012    0.90910442855868
H         1.09124519753721    2.06860466818247    2.15089355169475
H         0.00042451830635    2.18638706988270    3.23373628480165

