77
CSD_code = ZOVDUL | q = 1 | S = 0 | Stoichiometry = C31H39N6Ni(1+) | MND = 7
Ni        1.35189963003141   20.24096978667719    8.77353989102450
N         3.17528691236862   19.94333377517854    6.48391728252624
N         3.53329360428448   19.16128645390756    5.49937048350234
N         2.70451444906148   18.15615454073079    5.51408070035842
N         1.60288698679697   17.77609113744955   10.34238178196448
N         2.43167034787394   16.97886128864190   10.96455262509830
N         3.60817436080851   17.53349806999769   10.86961140154093
C         2.09915142345420   19.48708992478913    7.17613280664376
C         1.80303102346669   18.28379124020809    6.51580362460419
C         0.74670544459472   17.31587084864333    6.79421896068619
C         1.02769514874860   15.95976324069341    6.94333691046304
H         2.04446526337191   15.60456209870753    6.86188811037212
C         0.00738455291388   15.06842004255669    7.22281658564604
H         0.23102184795857   14.01905503789474    7.33888287857878
C        -1.29709351563842   15.51837117060932    7.34983149603794
H        -2.09103426565051   14.81702398767384    7.55523762559040
C        -1.58112500632171   16.86731788888176    7.20703573182473
H        -2.59716956682205   17.21790527694742    7.30295512040988
C        -0.56470655382560   17.76409650469291    6.93442522344293
H        -0.77354870204070   18.81480056024144    6.80256027983591
C         3.93471217428621   21.14499639695764    6.72989897965570
H         4.93080269543188   20.85280437965128    7.07399244920792
H         3.42257904764615   21.68227402871314    7.53523887123839
C         4.05515052273254   22.00028398427795    5.46964147087213
H         4.47434188663077   21.38760771096872    4.66987948875009
H         4.75530411139721   22.81052537012799    5.67578158126694
C         2.71828200772617   22.58703714115947    5.02288751580464
H         1.99932389721570   21.78036428593701    4.85801961978256
H         2.32698389760286   23.23281712241067    5.81164938003028
C         2.87028711050802   23.39464586748411    3.74068497491989
H         3.24257178749689   22.76673013103175    2.93476748224690
H         3.56987112937769   24.21362042213771    3.88757008203245
H         1.91421344996000   23.81201049658841    3.43652080971196
C         2.80293694147300   17.12864590224474    4.51740261835866
H         3.17851725046926   17.57478708134846    3.59815312645409
H         1.82204711830848   16.68764826830006    4.34944687054889
H         3.49926791697340   16.35116014309135    4.83488850915748
C         2.19586529562189   18.88304117066451    9.82824166758665
C         3.54300686513550   18.69814301408976   10.18108303731050
C         4.68308194435155   19.55997814285644    9.89444679156608
C         4.54766812986666   20.93565935581129   10.07468995745838
H         3.61199074204905   21.32544920229628   10.44766543510553
C         5.60747104139514   21.78107704336911    9.80521482958084
H         5.50073995241947   22.84355537807620    9.96066824678652
C         6.80774985443912   21.26568004726309    9.34195092272605
H         7.63619699079727   21.92498389841285    9.13523965410458
C         6.94300045532171   19.90099158742618    9.14402279394224
H         7.87383929315898   19.49772317975656    8.77593076128105
C         5.88926226850902   19.04815289978043    9.41997565559013
H         5.99864030600096   17.98896083564619    9.24113827893903
C         0.20656445929941   17.43051369511867   10.28686864409881
H         0.12466158217659   16.41002295060879    9.90907188426474
H        -0.26515495488124   18.12257569335365    9.57954245337374
C        -0.44245549336986   17.53850241665930   11.66789302069585
H        -0.21817149473865   18.52279975656605   12.08500584484290
H        -0.00602443124620   16.78623936617247   12.32681051377777
C        -1.95727414938432   17.35219525256486   11.59913301669655
H        -2.37216001088427   17.56313631409530   12.58613983514636
H        -2.38066758325878   18.07688898535418   10.90022807945467
C        -2.36751946105617   15.94597281930657   11.18087575662264
H        -2.06121567666511   15.73305592764954   10.15962776954461
H        -3.44764013020399   15.84219322233093   11.23796903032427
H        -1.92020900800302   15.20660086461610   11.84063430430151
C         4.73872227012565   16.91727306468654   11.50319175814191
H         4.38714926330899   16.37932186514726   12.38197540673014
H         5.45840376573975   17.68119322853231   11.79197662622231
H         5.21674102266088   16.20444200647499   10.82963016169633
C         0.81237271085626   21.66475939187450   10.20959254190832
H         1.16262187797532   21.85117359649770   11.21422090149304
C        -0.37436866377753   20.89156737183218    9.90045780808174
H        -1.00357101152769   20.42067734226854   10.63854786829011
C        -0.65242108406356   21.05277429344614    8.55650744729279
H        -1.53292715858868   20.71989783862454    8.03262204810845
C         0.39341145347206   21.86524478852558    7.99756416849691
H         0.37142395034796   22.27210549179102    6.99684754171836
C         1.20978413789158   22.34385505164535    9.05703334422068
H         1.95281434805961   23.12210004123547    8.98936084229816

