43
CSD_code = ZOVDOF | q = 0 | S = 0 | Stoichiometry = C20H18IN3Ni | MND = 7
Ni        0.63675576163797    6.52610330789491   13.32705149613273
I         0.50825978074101    4.15394629416812   13.93903388800864
N         3.50195489031183    6.48354649172582   14.14368016874138
N         4.71422867557023    6.42782723012372   13.63087013932178
N         4.55934443625586    6.44514028707755   12.33579321293320
C         2.52157876329942    6.54014272947559   13.19410139976922
C         3.25202677671314    6.50889140814651   11.99500155306525
C         2.74166613985119    6.51746993796200   10.62987594921745
C         3.30055035960119    7.32297818178457    9.64020416722363
H         4.13523475379698    7.96965582171784    9.86988694885592
C         2.75636240105024    7.33494618887029    8.36872126034047
H         3.18933500043333    7.96894012835720    7.60889441739629
C         1.65681787157843    6.54669680043761    8.07209953767432
H         1.23519642567265    6.56228412390719    7.07818002726627
C         1.09505734529915    5.74615058498424    9.05360432346884
H         0.23655938810381    5.13218119633480    8.82673440375308
C         1.62865783467879    5.73198254278653   10.32800320760357
H         1.19694743409986    5.09890400893087   11.09471955596698
C         3.36060238221254    6.44395284062167   15.54364973230407
C         4.48505794305376    6.20534745781488   16.32815024489942
H         5.44124372935351    6.05990826849032   15.85231984402235
C         4.35722214332538    6.14894720293354   17.70254043873880
H         5.22870332287505    5.95996175386812   18.31061910110076
C         3.11857973916500    6.32410507968493   18.29866753699002
H         3.02279200128839    6.27065645001793   19.37230598246758
C         2.00265218611839    6.56323830500103   17.51430609543081
H         1.03481096259364    6.69422887810300   17.97314999945467
C         2.11970578471407    6.62892533202136   16.13916619127682
H         1.23730531444654    6.81269234137145   15.52263976818004
C         5.71000791951492    6.33505907515424   11.48710879958864
H         6.11909271832074    7.32197351541911   11.26306845560485
H         5.43113735821387    5.83775815618376   10.55951727722911
H         6.46669946161929    5.75479612778951   12.01277815058646
C        -0.98954681760085    7.15074093898063   11.99683792709715
H        -1.44134477442345    6.65383698948637   11.15303287602785
C        -1.39024362925067    6.99867983713098   13.36385562192185
H        -2.23063789426965    6.40269082014499   13.69216331805155
C        -0.72662316304858    7.96964875516230   14.14663802922589
H        -0.93709421408397    8.21215995046523   15.17699835419219
C         0.23442546445196    8.56020139210789   13.32423578573950
H         0.86872594116192    9.39701201761364   13.58214795102864
C         0.03401254475069    8.07575728147008   11.97050938581194
H         0.52137953681889    8.48153396827596   11.09683747628100

