69
CSD_code = ZOVDEV | q = 0 | S = 0 | Stoichiometry = C26H34I2N6Ni | MND = 4
Ni        4.06127732981192    8.66135464656348    0.00001879234617
I         1.68179818840182    8.09684591334412    0.56609447050595
C         4.57032634308488    6.92158417935142    0.55244989885722
C         4.31681081319319    5.70404635283399   -0.10334274736387
C         3.63326625026659    5.52663985774694   -1.37287518002553
C         3.82966155673467    6.49411003143115   -2.35963338732044
H         4.52822945104070    7.30585200048512   -2.17661076406797
C         3.16979389249308    6.40502176099368   -3.56951483564195
H         3.34042334933052    7.15041679052998   -4.33249446416988
C         2.29086043840266    5.36031995625060   -3.80453066989091
H         1.76826081187354    5.29534437208570   -4.74712364376476
C         2.07373964145151    4.40906872301787   -2.82204099260990
H         1.37315516978429    3.60537969110930   -2.99381405632802
C         2.73950146763174    4.48542163444860   -1.61271868780954
H         2.52645247551500    3.75976917990435   -0.84282949443641
N         5.19731610315718    6.53079149193904    1.68026432294893
C         5.70345133927780    7.38725194033989    2.71946686599327
H         5.23393122996580    7.09783559591881    3.66310421579029
H         5.41300549293785    8.41177413447186    2.46502330494168
C         7.22577780089053    7.29013541880811    2.81547717493486
H         7.64482572246374    7.42945584210540    1.81670599409377
H         7.50102139378773    6.29355261522692    3.16625808163732
C         7.81014388648591    8.35740759350078    3.73764900456193
H         8.89792044646084    8.31711150634372    3.65675181224548
H         7.49234995506032    9.34251960426478    3.38905661688120
C         7.41562738004285    8.17531074337323    5.19835307401652
H         6.34394593107708    8.29376182430299    5.33709801051565
H         7.91795105872636    8.91480461280579    5.81758842263571
H         7.70016979173817    7.18570633914494    5.54970334584144
N         5.35540419844243    5.22872035862904    1.77545224217613
N         4.81782413626723    4.73104088616658    0.69140520390391
C         4.86596689939615    3.31481873733249    0.47281251078141
H         5.73142038801066    2.92043465238681    1.00363975452433
H         4.95304078229410    3.11043471195364   -0.59355931033609
H         3.96679868732819    2.83480432641380    0.86418942409521
I         6.44139118956041    9.22424196987607   -0.56599148963651
C         3.55261303553004   10.40118443296542   -0.55245002689737
C         3.80611917015997   11.61867453280190    0.10338734859622
C         4.48962020677229   11.79600211711190    1.37295928076940
C         4.29315044164787   10.82851238715664    2.35969449591542
H         3.59456585063432   10.01678844839142    2.17664101677347
C         4.95303701626671   10.91750614048154    3.56957487337958
H         4.78231830926876   10.17212766968209    4.33255107782505
C         5.83206456844588   11.96211765255319    3.80461516892548
H         6.35460831210467   12.02707850634038    4.74724070974647
C         6.04923291961478   12.91340114836364    2.82216640522232
H         6.74987237338980   13.71703451300078    2.99396844962813
C         5.38346325512038   12.83714070282694    1.61284306252364
H         5.59659424616824   13.56277743343148    0.84296733691957
N         2.92567238835419   10.79195090674381   -1.68028113486498
C         2.41955723707358    9.93546384445007   -2.71947494465487
H         2.88915447461606   10.22482721749354   -3.66308966731718
H         2.70994449440834    8.91093849526769   -2.46498557485227
C         0.89723880108032   10.03261645993391   -2.81553203511910
H         0.47813168802656    9.89328399207315   -1.81678452303671
H         0.62206049713322   11.02921365748922   -3.16630521815703
C         0.31287143153291    8.96542331125206   -3.73779525788188
H        -0.77490585975823    9.00580686892974   -3.65696713980525
H         0.63055476816883    7.98027330258739   -3.38921437428082
C         0.70748168793070    9.14747059223289   -5.19847737217555
H         1.77916517466916    9.02896371410513   -5.33714397376700
H         0.20515290012483    8.40802990987756   -5.81777926860934
H         0.42302903418374   10.13710677502348   -5.54980159424845
N         2.76761834286392   12.09401472574113   -1.77546645695935
N         3.30516832140320   12.59167774903226   -0.69139564420395
C         3.25712105762133   14.00789331532204   -0.47282204666433
H         2.39170356767931   14.40230782012676   -1.00368562082384
H         3.17003275561694   14.21229131012782    0.59354975145072
H         4.15634653976130   14.48781035168323   -0.86418992418098

