42
CSD_code = ZOVLOL | q = 0 | S = 0 | Stoichiometry = C17H17ClN4O2Pt | MND = 4
Pt        3.27125445770542    5.24398441165851    5.25516467230291
Cl        3.72091277474021    4.43859512022862    3.23814331497855
O         1.87869163886688    4.35686970747358    9.41054215290886
O         2.79842033372036    5.22333089841816   11.15209193963033
N         2.91442295043218    5.86122368859112    7.08081221757342
N         5.21878781001757    4.62633852493982    6.09630838643361
N         2.10978661172169    5.29829687588961   10.15060680232840
N        -0.42892919135945    8.18522337231278    7.20904320188471
H        -1.16946125518255    8.87150294682370    7.17491542470207
C         1.48095494845132    6.54186652453548    9.85289387145149
C         1.04931068962189    7.26342941983930   10.95996035699260
H         1.36031156360286    6.93669130468877   11.93963894100028
C         0.19045875955985    8.33461043055177   10.79496068184818
H        -0.13842465849819    8.90348237008284   11.64955631010752
C        -0.29959733550715    8.61754082598146    9.53792488093745
H        -1.03919317574548    9.39332774573682    9.40514895543860
C        -0.78308930795447    7.72576711575979    4.85661510025487
H        -1.64268892770262    8.38012866408391    4.83551303616556
C        -0.34568400569664    7.08913289152710    3.71110781317990
H        -0.88439804870875    7.23758061160238    2.78675378622810
C         0.79444825279240    6.29077646702537    3.72038623887843
H         1.13236172168228    5.84312789021134    2.79778440482490
C         1.50298122009317    6.07562351132938    4.89290708776951
C         1.75501653496293    6.43270587621147    7.30331043018392
C         1.15289207995695    6.91737357609902    8.52964791015018
C         0.13863535759873    7.91049692249319    8.41242826046699
C        -0.09533271604185    7.52218228563953    6.04848157566127
C         1.01307084690536    6.67373833147151    6.07730976901971
C         3.97092984560027    5.59046166961522    8.01928840026807
H         3.80381162255447    4.62271618542765    8.50690744294619
H         4.03826028538080    6.36490575490549    8.79633982882745
C         5.30137632184744    5.52018976562680    7.25893420294570
H         6.09749805175808    5.19489881265692    7.94715441205372
H         5.54904894412207    6.52210953260105    6.89310474453886
C         5.10289553645074    3.22601763177177    6.49724214196223
H         4.18183897993731    3.05819989666888    7.05624676750405
H         5.95699389110629    2.91808677226950    7.11581206781255
H         5.07377538245400    2.60418169118714    5.60283821733213
C         6.39855122828342    4.79311209359240    5.25410356175911
H         6.48075623501839    5.83060108091779    4.93043234830193
H         6.29675423829350    4.17007020317914    4.36684598404718
H         7.31428950716110    4.51170059837187    5.79049235639539

