75
CSD_code = ZOVLUR | q = 1 | S = 0 | Stoichiometry = C35H32N4O2PPt(1+) | MND = 4
Pt        2.59421488892832    2.93300731658369    2.91585851763582
P         4.12136654055160    2.37776544649835    4.51819822575002
O         1.97655354919028    5.15202731958948   -0.83218904934352
O         0.12348711957542    6.12205225203543   -1.32894226085795
N         1.34485913970104    3.38451937190811    1.39683615692450
N         1.67356149633131    4.73060964427368    3.81507492856649
N         0.81892322970122    5.14081594461752   -1.20309479431641
C         5.82150319853174    2.27073364699454    3.88766935738736
C         6.03016305071713    2.49019264224372    2.52908859360664
H         5.17579192862567    2.70361037440255    1.89234414291318
C         7.30970487833212    2.44380702922692    2.00660932557290
H         7.46790013291333    2.61473009253401    0.95277786453385
C         8.38710358793630    2.18371330252859    2.83831222014934
H         9.38585566109072    2.14327833051182    2.43162853791285
C         8.18699020832062    1.99450148282612    4.19702725183355
H         9.02982516937532    1.81508338490984    4.84718296938668
C         6.91056869980603    2.04707503543349    4.72655257244949
H         6.76406376990547    1.94077332785328    5.79241026641447
C         3.62349165531043    0.76933174655626    5.20922046940157
C         2.27381785778812    0.45218615349102    5.06772135136599
H         1.62525765695349    1.14620852748373    4.52911834393904
C         1.77549636723335   -0.72773552494702    5.58483826501179
H         0.72922700544945   -0.96986853870912    5.47573691243832
C         2.62617368177730   -1.60344372077394    6.24233401042185
H         2.24141436353939   -2.52718727118858    6.64614270404105
C         3.97077767971745   -1.29788568019196    6.37551242815186
H         4.63237603222135   -1.98523949265850    6.88032760134351
C         4.47331035008592   -0.11350480198581    5.86381218389477
H         5.52369297207647    0.11263258645058    5.96482568858855
C         4.37997542425984    3.39177572892456    6.01079756033848
C         3.80294382629115    3.06696030258781    7.23463517797808
H         3.20310375470320    2.17269239629553    7.32683963055487
C         4.00479534435202    3.88615437551455    8.33217668518646
H         3.56353973334550    3.62579048649113    9.28210575385786
C         4.77072565983210    5.03458402746868    8.21434670027252
H         4.92666008784089    5.66953429954943    9.07253484414884
C         5.34058164490951    5.36721069655218    6.99453385128606
H         5.94008216908999    6.26014179031028    6.90250690073262
C         5.14561009777920    4.55160516802062    5.89576268171866
H         5.59849467670365    4.79762645131404    4.94372041349721
C         0.26570480126816    3.86331508223639   -1.55560861442074
C        -0.55697380089943    3.84962275150335   -2.66601390010448
H        -0.86312408773538    4.78853871954167   -3.10023104810507
C        -0.92856242500650    2.63596591240841   -3.23371051462836
H        -1.58662441870548    2.61964104999623   -4.08696353157732
C        -0.38794473361295    1.47057878621291   -2.74783391618527
H        -0.59396256070187    0.52999341035817   -3.23599888918765
C         2.67590096227193   -0.91886018950990    0.05234312771410
H         2.56044691058200   -1.78172914359750   -0.58556025116282
C         3.53961234294451   -0.93998735343028    1.12522821515428
H         4.12145119528677   -1.82745112690035    1.32140423062476
C         3.65541595775827    0.15488001091374    1.98151990034735
H         4.32832820302347    0.07685289997410    2.82394069500035
C         2.92986093497121    1.31252297433964    1.76588676964397
C         1.36215527281689    2.58051403605297    0.37239497212690
N         1.03706793200582    0.31234492678694   -1.23196706047329
H         0.85420818791232   -0.52276049679497   -1.77173738150495
C         0.70165723138722    2.68055136336571   -0.91954435562546
C         0.45350609776238    1.47414244966812   -1.62352268054429
C         1.95046244992519    0.24232726133581   -0.20966315383743
C         2.10452832516799    1.35915665534545    0.61863365125663
C         0.59652440665084    4.59784186437170    1.57534383106952
H         1.14697378647766    5.46061346841767    1.18334610666645
H        -0.38265264054020    4.55328183575951    1.07905034430017
C         0.39860222503579    4.80138105708052    3.07842708718045
H        -0.25445439048484    4.00983635951376    3.46166252926232
H        -0.09294080417432    5.76935511141265    3.25424953932307
C         2.55159796719215    5.85009384899203    3.46197572286800
H         3.41701820331830    5.84777157963533    4.12470049342895
H         2.03355889040622    6.81048822188636    3.57155988647477
H         2.90828160082711    5.75576666261895    2.43453721716351
C         1.36630582246020    4.78853594252303    5.24366020053501
H         2.28437101831263    4.79453089445999    5.82692458588074
H         0.77678901599086    3.91915950235165    5.53521795631420
H         0.79722582931088    5.69391801964107    5.48575325035047

