71
CSD_code = ZOVNIJ | q = 0 | S = 0 | Stoichiometry = C28H37ClN2O2Ru | MND = 9
Ru        1.98638633245007    0.74566934111575   10.29299644944812
Cl        2.05279628572164    2.54218136447841   11.79550635067181
O         4.07987399007732   -2.03126654855993   12.69525166706019
O         2.67795443085530   -0.66533038371295   11.69402590600848
N         4.99635915690457    0.68817868862026   10.66003447928711
N         4.47817897326358    1.69104563827486    8.83031832667176
C         3.94183063962921    1.08157323732090    9.91431434357913
C         6.16887419088175    1.03698189614042   10.04414143288783
H         7.12574234262721    0.80775322350599   10.46496103280143
C         5.84710661713118    1.66702351649810    8.89385684283050
H         6.45882729126717    2.10012366111154    8.12962155547605
C         3.77798488118668    2.27514506809517    7.74172762123786
C         3.69212489471875    1.57368235479127    6.53997410040132
C         3.01936906311865    2.16132996137663    5.47681546893553
H         2.94021234553377    1.62310364204290    4.54307068934104
C         2.45464753494891    3.42333624176642    5.58940004875722
C         2.59045736105936    4.11316700393009    6.78828051801237
H         2.17492212160316    5.10701686432097    6.87394867584651
C         3.25636443749023    3.56500905306528    7.87433817603955
C         4.33284438423633    0.22623978122058    6.38915215333703
H         5.38740960437483    0.34166621457242    6.13656510148491
H         3.85949379835291   -0.33658994226060    5.58785529231632
H         4.27431601914276   -0.34481898371217    7.31373787665701
C         1.72710695190233    4.05153256422849    4.44016452263958
H         1.64525870838841    3.36188806582432    3.60419621555747
H         2.25606785207656    4.94227920343298    4.10354838982198
H         0.72610362973606    4.35653721988517    4.74192703894815
C         3.43661491602320    4.32924015171514    9.14318655595120
H         3.01239601516768    5.32516226697663    9.05697940314914
H         4.49472785564312    4.41861176783795    9.38567785601474
H         2.95632036529774    3.81436207023055    9.97831160682653
C         4.98425856912419    0.04488783814263   11.95507013689559
H         5.92178078416564   -0.51046217559884   12.05862949362831
C         4.83867738559111    1.06016433163026   13.09764161390870
H         3.87861204839594    1.56454479010012   12.97323438678619
H         4.80782183400630    0.49844655513105   14.03293348150969
C         5.94699538574761    2.11545315272324   13.16706960185563
H         6.10192701082825    2.53382003766594   12.16581204841490
C         7.26154883387997    1.52205804076082   13.66842772166898
H         8.03800435388709    2.28404198286133   13.69191883365568
H         7.13540290035946    1.13069554598839   14.67535850899086
H         7.60318061965466    0.70959140123735   13.03131435169465
C         5.49589816293884    3.25056144728354   14.08358892381066
H         6.25772152537311    4.02529276825409   14.13877595420588
H         4.57607986994754    3.69169910973602   13.70809426605800
H         5.31302883690365    2.87474546954691   15.08760690286103
C         3.82334509270727   -0.98847832632983   12.12275822248116
C         0.08988020052786    1.73275186220675    9.37880040994310
C         0.83480104469291    1.22381328141778    8.30567331261756
H         1.03153202305104    1.84970359930993    7.44347651852981
C         1.25526815160676   -0.13190056676860    8.29832552214550
H         1.77444378086079   -0.50875838589111    7.42647764866893
C         0.88949753843502   -1.00899413803893    9.33361495640446
C         0.06963322258500   -0.50075082729923   10.37943998376629
H        -0.27289908911140   -1.17849403914906   11.15348351461517
C        -0.30545189545362    0.83536150944384   10.41532395632808
H        -0.94798322001401    1.20152244123856   11.20900962367010
C        -0.37196718383429    3.15802548877439    9.40750506069681
H        -0.04123630508426    3.69064427653322    8.51856506456439
H         0.03853074189518    3.65821520016216   10.28672034371387
H        -1.45927014668362    3.20285070499041    9.47087671048850
C         1.23999865455787   -2.47705597234954    9.30162464899376
H         1.12201404540400   -2.87108535552814   10.31641944582780
C         2.68997510038985   -2.71727339251264    8.88114081020227
H         2.94924907974186   -3.76159875154585    9.03476631879641
H         2.84745030832441   -2.47899727997832    7.83098227899394
H         3.35584111872679   -2.10815833369428    9.49198854678497
C         0.26847538776558   -3.21104727545821    8.37112723720125
H         0.48344490617243   -4.27664396511516    8.37464587957209
H        -0.76024229116431   -3.06536840881741    8.69507121413560
H         0.36345862227607   -2.84215784520729    7.35112084691640

