49
CSD_code = ZOVPAB | q = 1 | S = 0 | Stoichiometry = C14H28MnN4O2(1+) | MND = 6
Mn        0.90986503771305    2.83637094070996   10.43818473440028
O         0.97800342603468    1.58626273763276   11.91578155831313
O         1.22611700587341    1.37309398803373    9.20756779540720
N         1.42196342130341    4.32916118553983    8.93160879368329
N         3.28287343136331    3.07252325025970   10.69346641800362
N         1.09886069117139    4.59964287763490   11.73877707184211
N        -0.60602526665504    3.01875609882164   10.28470100846187
C         2.79203496060435    4.03566712552811    8.47748202804748
C         3.79465051778023    3.95371713431376    9.63407535126741
C         3.38886223740401    3.65379081451291   12.03382895036899
C         2.47611670826223    4.87148912405111   12.20420074850314
C         0.61066882104805    5.68992980084945   10.86580265060151
C         1.32169642154043    5.69623224056230    9.50630697837195
C         0.51539575489657    4.21140829977820    7.77602801063078
C         3.96560012798186    1.78258651268654   10.65261065351169
C         0.20371411064152    4.47343415616565   12.89985054641437
C         0.85085278750883    0.32432249424646   11.86551628296389
C         0.87500278619534   -0.43204520175629   10.69171723830702
C         1.08076228071898    0.13198784323861    9.43098099082587
C         0.70489512833138   -0.39979387096817   13.17748515445564
C         1.17095247914039   -0.78978573059329    8.24427072865486
H         3.12938931949731    4.79111869863161    7.75360000651963
H         2.76116376422604    3.06907316400350    7.96740422988276
H         4.74708511135727    3.58012229780089    9.23850776535105
H         3.99880143190779    4.94795011281546   10.03814957567948
H         4.42538553201867    3.94160079978874   12.27214774496264
H         3.08302041141806    2.88290388702644   12.74731263892005
H         2.47135120344646    5.14624508150574   13.26410051834631
H         2.88625874483397    5.72521374166470   11.66047159622153
H        -0.45620248663665    5.51398715920890   10.70385004132473
H         0.73900741331474    6.66425110785327   11.35760341330928
H         2.31959293522050    6.12909737425446    9.60041310231760
H         0.75776724314713    6.34340122769702    8.82837726568562
H        -0.49968915680447    4.44237268852771    8.09411535395151
H         0.52304483139866    3.18643640944122    7.40748064409797
H         0.81957349366925    4.88931627041057    6.97130024106959
H         3.85821906015632    1.33964721669532    9.66268710122958
H         3.52983103186443    1.10071556593713   11.38304411040242
H         5.03600857705712    1.88418472544059   10.87565439333940
H         0.55620323284637    3.67001385924775   13.54359040928704
H        -0.79808093977328    4.21557392480797   12.55670122132902
H         0.16898420717497    5.40826273492930   13.46950460168863
H         0.75649896874200   -1.50028788801428   10.76508721819828
H        -0.30880434480898   -0.79126661970207   13.24665974506503
H         0.87185078906368    0.28190944653213   14.00791254090249
H         1.39364273773619   -1.23905728684747   13.23953359087144
H         0.17218013438212   -1.16039844711634    8.01867754740829
H         1.80618721302718   -1.64477437323738    8.46007018677005
H         1.54596667166016   -0.25596470055024    7.37449950283235

