109
CSD_code = ZOVRIL | q = 0 | S = 0 | Stoichiometry = C42H60FeO6 | MND = 6
Fe       17.61800469066509    1.86443323141823   14.92785711596655
O        17.62040023069896    0.36779460659078   15.86604607193629
O        18.67769210014428    0.90079171368677   13.74175963060973
C        18.65545465218238   -0.38916267432206   15.61936013971257
C        19.26255304874907   -0.08374691289789   14.35560747573503
C        20.34398847790441   -0.84876645841434   13.86476696963455
C        20.77904920749605   -1.86697988485177   14.68629863492414
C        20.19601253202586   -2.15367987433988   15.92737138302824
C        19.13155184721764   -1.44030155228386   16.43530385658805
C        18.49306000859026   -1.68821940520261   17.78837930657173
C        17.01877664271586   -2.05637522219881   17.57350418430123
C        18.58726008389847   -0.39749478342331   18.61392572721321
C        19.17870972949522   -2.81902010591941   18.55913930996265
C        20.98247170250784   -0.47486892020817   12.53969950461935
C        19.92100073426667   -0.58415088514620   11.43724204335971
C        21.48113482107654    0.97436637163995   12.63239673215382
C        22.16360336858210   -1.38051945601983   12.18314632206260
O        16.21022960867681    1.68956299750225   13.87688788997423
O        16.40748956530571    2.65074211841594   16.10174244752356
C        15.26779344545453    2.55655110325546   14.13161341106755
C        15.37768008360112    3.10504575875950   15.45304700262008
C        14.40170733125975    3.99554936731376   15.95352005786039
C        13.37737275699340    4.31084431530953   15.08625408229754
C        13.28004338395237    3.78699142525194   13.79060731866589
C        14.20350762068115    2.90614358165158   13.26991027233084
C        14.56736943888319    4.58037579827404   17.34408146908208
C        15.90943383562795    5.32379373411068   17.40297936486186
C        14.57166192328836    3.43003804749269   18.35937384640079
C        13.44626406292941    5.55774719331944   17.70505678022327
C        14.16241820350316    2.34369875116586   11.86208910488536
C        14.05497561712109    0.81514697138707   11.94759335749350
C        15.46482938490309    2.72995964833808   11.14728069097305
C        12.97758863287886    2.87845813366766   11.05395073358055
O        17.89918335074026    3.51027069562525   14.16117965886239
O        19.13640167812095    2.35231653205850   15.83819491287046
C        18.93610317696244    4.19285290135777   14.54373803738299
C        19.66260134384158    3.51007075716886   15.57344095532889
C        20.80367622157294    4.08479313842463   16.17064909068963
C        21.17536541837311    5.31981962953714   15.68390161062586
C        20.47672545593531    5.97847349354595   14.66440798866479
C        19.35290874758359    5.45199215100352   14.06419137808824
C        21.51884994877149    3.33551715832869   17.28033462570422
C        20.52524131932670    3.11363885877076   18.42861008225595
C        22.73040798092173    4.10329004303644   17.81446518913243
C        21.99269797439704    1.97954535085565   16.73853049941406
C        18.56864524775301    6.11937123057400   12.94893969105466
C        18.58198344178001    5.18987090372048   11.72791601044447
C        17.12304580793944    6.33336080837461   13.41919553451648
C        19.16230588142615    7.47202826218612   12.54818377041370
H        21.61703283354063   -2.47483574556597   14.38472548618526
H        20.62159718824952   -2.96339970920018   16.49737903517788
H        16.50253340367256   -1.24967692019312   17.06163766668259
H        16.93824062156857   -2.96055756713301   16.97298670779039
H        16.53351684848273   -2.23064852123061   18.53161220325926
H        18.08309317226725    0.41598505709818   18.09989759853424
H        18.12066291922718   -0.54007356426367   19.58643370729521
H        19.62924361946257   -0.12237099043349   18.76375470821676
H        19.10862480077023   -3.76019097872878   18.01886600449057
H        20.22593205622935   -2.58939408565352   18.74110928270156
H        18.68871877700698   -2.94623691345206   19.52205679962823
H        19.08257958762838    0.06808845064278   11.66166343141346
H        20.34485169253117   -0.29371280555564   10.47817347240577
H        19.55819477348120   -1.60740179610967   11.36252552007673
H        20.65497459056471    1.64445999280054   12.85416038043158
H        22.22508805309946    1.06831815070462   13.42123971760300
H        21.93216345620359    1.27724714016715   11.68967720702937
H        22.95235183595296   -1.30731058385230   12.92822320234403
H        21.84844747634461   -2.41778746939661   12.09768395536183
H        22.57575257103053   -1.07321630168399   11.22436114136684
H        12.61125988920699    5.00395820547331   15.39491591197310
H        12.44549562928677    4.10900988379938   13.18935264592657
H        16.72777025090538    4.64440840256857   17.18045604062148
H        15.92448237964903    6.13447496354855   16.67693961786422
H        16.06354633630319    5.74176514283836   18.39566107842068
H        13.62601709771353    2.89266436606328   18.32468407210755
H        15.37579086521516    2.73653589014690   18.13302802343637
H        14.71533174284394    3.81809592704037   19.36558777044999
H        12.47742015666635    5.06417451267128   17.68896202150561
H        13.61293108043741    5.94069402583414   18.70960233126253
H        13.42785271519025    6.40285681228650   17.02088318807966
H        14.90692370052430    0.40977208796222   12.48525924193592
H        13.14331412904744    0.52826385355827   12.46837342553309
H        14.03480505727493    0.38541511766859   10.94822269851514
H        15.55619093158607    3.81277012417987   11.09124105428230
H        16.32127145309036    2.33594753707432   11.68714668991453
H        15.47170288461594    2.32638430249265   10.13686970001448
H        13.02417524317712    3.96089933826640   10.96102627232676
H        13.00312710221460    2.45228081768407   10.05333961116697
H        12.03239740508615    2.60040576367340   11.51427507720573
H        22.04089349706019    5.81727250301662   16.09036861440252
H        20.85020535675195    6.93994730451072   14.35151093881702
H        19.66199485176579    2.55693745452975   18.07596070816908
H        20.99781889340098    2.55330720675783   19.23273926319282
H        20.18566453764363    4.06929777006828   18.82337744565104
H        22.43285172075623    5.06355046098569   18.22870971967622
H        23.20221314464947    3.52546322203676   18.60638448039084
H        23.46639917173438    4.26591180948586   17.03066260871280
H        21.14959133396252    1.39471624947786   16.38068645284322
H        22.68934542788262    2.12594152032902   15.91519201881488
H        22.49614615335764    1.41756675452731   17.52271707033098
H        19.60277101977125    5.03276592663565   11.38474611128134
H        18.14966950500197    4.22710590909585   11.98411242363800
H        18.00520875969957    5.62691792774874   10.91534654392018
H        16.66153440702604    5.38458852656079   13.67972765493666
H        17.10361927569435    6.98171381333380   14.29324103057528
H        16.53670260857563    6.79862693370033   12.62928553470059
H        20.18243182477170    7.35971408280269   12.18897608276873
H        18.56723153172363    7.90289636616873   11.74576404516538
H        19.15356888266661    8.16613569661155   13.38522627777528

