92
CSD_code = ZOVRAD | q = 0 | S = 0 | Stoichiometry = C31H50BClN8Ti | MND = 6
Ti        6.89394693877928    6.06523655594881   17.61740353252901
Cl        6.85639569151213    8.07483965881066   18.69930977084604
B         9.51240440623781    5.69561888209030   15.74397698424960
N         5.21083943529596    5.84045024373236   17.58469046305065
N         6.98085272527045    4.90857563229573   19.37933787350855
N         9.15525030018159    6.20916860470129   18.18391822730074
N         9.99762854656454    5.98469793188987   17.16252173224239
N         7.39346996061106    7.06828260080449   15.83802102909033
N         8.60057385905819    6.84416102240072   15.29741624061983
N         7.49037383198187    4.35300859873369   16.40825853393369
N         8.66178058091812    4.42013727040267   15.76275883548028
C         3.83558983289147    5.92393725178321   17.89846828374288
C         2.98488824082427    5.94235841158813   16.60556077739186
C         3.52388113034274    7.20865388313247   18.70824533652669
C         3.36704656637002    4.71047665703936   18.74741181490334
C         6.33875303764615    5.35083655251052   20.46541683955291
C         6.32037832678037    4.66723496894409   21.66463180255714
C         6.99119698318873    3.44818341885463   21.79642906700236
C         7.67065476061327    3.00850392593010   20.66506199065564
C         7.64643041095528    3.76187538141730   19.50175635316045
C         6.96675535078775    2.69537873952100   23.11120015667765
C         5.50859188268978    2.37433137396515   23.46878854048225
C         7.58857863797003    3.58343286118292   24.19843354023464
C         7.75188701091714    1.38301954748362   23.04800981778224
C         9.89828773943627    6.51789483692673   19.24502158518113
C        11.25717022084185    6.47848032292798   18.89566594918782
C        11.26905651179774    6.13960090252633   17.56436184484621
C         9.35641994321061    6.88783176282394   20.59073993465856
C         9.90536485784818    5.94871887870238   21.66732619771618
C         9.70777378927174    8.34510360275694   20.89999054196651
C         6.86117618927743    8.12118659638925   15.22159713537629
C         7.75743966721098    8.59138048099152   14.25278414059878
C         8.84389790753440    7.75025850414283   14.33993949725518
C         5.49444151037890    8.62856077924630   15.54913258838639
C         5.56986747449313   10.04301572375140   16.12859562401721
C         4.61193401282222    8.59389644863855   14.29852591018657
C         6.97027825512929    3.14908091148268   16.17204660962817
C         7.84297557038624    2.41640592622512   15.35775530998497
C         8.90087216851711    3.26746875646226   15.12323669612058
C         5.62170940719963    2.75754785820385   16.67937212439304
C         5.68348218468755    1.51387301757026   17.56762127031688
C         4.68736643237191    2.51735876273484   15.48969995863771
H        10.43135062733126    5.57319341207641   15.00437083038069
H         3.30485538723393    5.13903846962615   15.94598129054067
H         3.10902578225520    6.88686364456400   16.08495353516695
H         1.93195026975188    5.80841757699237   16.84544138126344
H         3.86773421241085    7.10281789965108   19.73482585810828
H         2.45170976078176    7.39561323970730   18.71571478392012
H         4.03550180515530    8.06337599491535   18.27171242283626
H         3.26980915753178    3.82226659128658   18.12863725310219
H         2.39813222795117    4.92666430596085   19.19262643329926
H         4.08268487755230    4.50748183421915   19.54309733722890
H         5.82522996335148    6.30115403253410   20.35109533937478
H         5.78020937946690    5.09278137093203   22.49534618986546
H         8.23201241896817    2.08837624414151   20.67083847102562
H         8.19483061497180    3.41685943335656   18.63153465503913
H         4.91983638370352    3.27959263469249   23.58544438022141
H         5.46959823823097    1.81977085382726   24.40337652525065
H         5.05305958570464    1.76800213186537   22.68870467434932
H         8.61647492557440    3.83041028216319   23.94176438494914
H         7.58770265906198    3.05875632944658   25.15095622458454
H         7.03421448240699    4.50972079593002   24.31899559087854
H         8.80097328803859    1.56380172640411   22.82533395818018
H         7.33672729223828    0.71337651104109   22.29823918041831
H         7.69683641852972    0.88221242780528   24.01189334985463
H        12.10098781413771    6.67578755761919   19.52474588046909
H        12.08605607659831    6.00285300931534   16.88445572678516
H         8.26588101088050    6.81290683282493   20.56890631330105
H         9.68236710626971    4.91052524521332   21.42424208014333
H         9.45624136167415    6.18256904380433   22.63052286874428
H        10.98426788589713    6.05710599551871   21.75632821182696
H         9.22066846798283    8.99285975766238   20.17537719242319
H        10.78313981297264    8.50549343233930   20.85870499828087
H         9.35225761448340    8.61151339282310   21.89288477358297
H         7.63092861539781    9.42336819638114   13.59075318657048
H         9.76201535258905    7.74103080473192   13.78661810392665
H         5.08995884035969    7.94584765248423   16.30969942430952
H         6.14763647026797   10.03170598992168   17.05016039339957
H         4.56996611983264   10.40888043018573   16.35141950527833
H         6.03948351869720   10.72440098208466   15.42150701167372
H         4.56260061605334    7.58368241226683   13.89673496740213
H         5.01020474089735    9.25407709958832   13.53054844215485
H         3.60351414351727    8.92248967791125   14.54046128157444
H         7.71731670367929    1.41816654273204   14.99126633059440
H         9.79321498929033    3.12537375089722   14.54716033162005
H         5.26149079042717    3.61831665490312   17.25884011430988
H         6.30770422590649    1.69233730424265   18.44026946686309
H         6.08875270640913    0.66741442495398   17.01607698962296
H         4.68489102508724    1.25202789051071   17.91048159706692
H         4.66562527164498    3.39700643803640   14.85005532606976
H         3.67669611392375    2.31290021035670   15.83617502343794
H         5.02661055562520    1.66824747992273   14.89917994626139

