64
CSD_code = ZOVVEN | q = 1 | S = 0 | Stoichiometry = C21H37N2NiOP2(1+) | MND = 4
Ni        5.00208523090812    1.78804864330065    2.55107824133192
P         6.06180164030822    0.91976282112601    4.23980685803724
P         3.68968187902628    2.92508027388541    1.23953878187519
N         2.82505695208502    3.93778756256319    2.26030374831642
N         5.32903018443682    1.57228803275006    5.60120061484403
O         6.06203321696931    0.13473727751734    0.42715376464466
C         4.07309114684128    2.75508050789610    3.93439730110759
C         4.35077611585767    2.52658155515630    5.29435627675195
C         3.67943283114698    3.23104199012860    6.28908585313973
C         2.71749916263027    4.15926246851412    5.94336954481052
C         2.41794998702220    4.40406610055403    4.61802224056625
C         3.09287569119414    3.71267523489530    3.61648530581312
C         5.61600622134949    1.22517078225168    6.97949803768169
C         1.90090461081394    4.97760956218177    1.85137974270342
C         6.20668678506197   -0.89570124387829    4.57268062979266
C         4.79196184430084   -1.46831115551846    4.51756285662665
C         7.13156868184252   -1.58718191461470    3.57875288907569
C         7.78209920271628    1.62687629056747    4.11893170717275
C         7.59739868172734    3.09440916676341    3.73128142150988
C         8.61987959343837    1.47309037575823    5.38111825725980
C         2.49509202766496    1.67843199802234    0.53572062880308
C         2.08881251296110    0.78718537546855    1.70993614720051
C         1.28356379876493    2.28181922313862   -0.16247632596208
C         4.27855929586477    3.99498740915943   -0.15193694266195
C         5.25333405991932    5.01157520462418    0.43704299195075
C         4.93436673495354    3.16992679243885   -1.25267753554836
C         5.74449839792280    0.83120204200897    1.26723750648208
H         3.90577865078644    3.06405951273160    7.32817428841389
H         2.19450276939254    4.69883146874610    6.71692109856280
H         1.65654118760545    5.12370302653690    4.37051986027161
H         6.40333372847217    0.47689506827576    7.01461652729912
H         5.95358125130532    2.10125617686444    7.53855702316813
H         4.72792020126256    0.81890498961888    7.47023330130553
H         1.85015630939960    5.01805381085485    0.76653279736975
H         0.89664009880936    4.78025511467872    2.23459605078536
H         2.22830333065560    5.95310647972446    2.21986935975346
H         6.61118764763608   -1.02274091950710    5.58289328356648
H         4.12711993852730   -0.93130208757346    5.19320125637768
H         4.39286293823978   -1.38629138523093    3.50594259633531
H         4.79205999230059   -2.51879787910352    4.79866232052139
H         8.15470738463964   -1.22891176088679    3.66586427519836
H         7.13480907102700   -2.65843358710159    3.76999640898263
H         6.79206111680881   -1.43382730411976    2.55636953433484
H         8.26706709130736    1.09862805431781    3.28922880904848
H         6.91795951110763    3.17568692730073    2.86431300006678
H         7.16037645679229    3.65499945369808    4.55688455818034
H         8.54783054565205    3.55324357202067    3.46780214822940
H         8.71128393008962    0.43006738573411    5.67759302687812
H         9.62203613761544    1.85765022450132    5.20089344349271
H         8.18878246792069    2.03958918986209    6.20254377982311
H         3.06838350771433    1.08052127306309   -0.18316532640223
H         2.98343504501119    0.43309938909046    2.24975155856066
H         1.47072937647689    1.34295641771593    2.41398210885737
H         1.52740821211226   -0.07938347354285    1.36791809041470
H         1.57652703634186    2.94178870019573   -0.97641932188739
H         0.67461135672317    1.48423244816559   -0.58401240963272
H         0.66638738918259    2.83512995353661    0.54052188128691
H         3.40924857469860    4.51651845980922   -0.56803666446498
H         4.79057569642846    5.58019372475910    1.24180474736218
H         6.13011211882228    4.50204546068439    0.83760676163596
H         5.58583639641608    5.70858841255960   -0.32864024762811
H         4.24066078638342    2.45314732683109   -1.68664244358513
H         5.27611432588716    3.82884704213500   -2.04831314102271
H         5.80152193272331    2.63428695644231   -0.86991488478808

