80
CSD_code = ZOVXEN | q = 0 | S = 0 | Stoichiometry = C30H40B9Rh | MND = 10
Rh        2.58535422300703    1.83642700688734    2.20329242136153
C         2.08212643845848    3.89919437888692    2.11992498190394
C         1.45343472438101    2.42080008571045    3.97375277556899
B         1.41321324670123    3.18714313314360    0.84246431482465
B         0.60188072066890    4.52397052820773    1.79556764070917
B         1.08843494896371    3.99951578807875    3.48650303233999
B         0.65319602702975    1.30279039464794    3.12429103252808
B         0.57231324397064    1.68793805550465    1.33345162618768
B        -0.35339498335664    3.19250352660825    1.10521989479911
B        -0.68685694145409    3.82589938070697    2.72581316606110
B        -0.15800002394194    2.73051794900277    3.95217442534002
B        -0.78307324980050    2.07883941340746    2.40704831145911
C         3.96711006942831    1.01110121777194    0.64810892098936
C         3.39235359976073   -0.05199940526300    1.40166587947156
C         3.81501314860103    0.07525809837858    2.75812599621748
C         4.90960834608041    1.04516750795528    2.78793848209091
C         5.82626896143905    1.41355104995867    3.78219395917722
C         6.89284658118978    2.23725388862591    3.42429406999746
C         6.99897783131099    2.77489623215618    2.12756963278487
C         5.99896418614183    2.55968346036157    1.18210146063495
C         4.99423368794884    1.63093143307403    1.48332667794847
C         3.92851521533056    1.07321137182665   -0.85269917659287
C         2.58696989237666   -1.19732076927318    0.86560875961885
C         3.58269089943768   -0.99861035269612    3.78212098572738
C         5.71078605626763    0.91498144486516    5.19294716478703
C         7.91275944248311    2.56075172715830    4.48192549821844
C         8.21296315228145    3.57933214983293    1.74587752152683
C         5.98556786067295    3.31901221564102   -0.11509366005590
C         3.30631621694525    4.72062403273721    2.05673985470998
C         3.45742202950193    5.69502999488173    1.06578172951157
C         4.57013054105868    6.51246045251076    1.03440422654316
C         5.56093514857207    6.38706220496578    1.99460662414154
C         5.43929317721441    5.41013341379410    2.96680605867798
C         4.33601099489653    4.57889133305061    2.98771452191799
C         2.11922327838116    2.19130513926473    5.27135009062561
C         2.94394424969474    3.14334555711978    5.87860766280098
C         3.52598638438123    2.91455774221898    7.11104231891901
C         3.29272356378497    1.73270310327100    7.79248320269101
C         2.44451451346607    0.79312366602808    7.23122159325757
C         1.86552784424437    1.01952461502899    5.99711708617169
H         1.90460591407758    3.35221868889563   -0.21777769471685
H         0.58773031905155    5.66554366208411    1.51720450253810
H         1.31485772884032    4.87094023396139    4.24760065412896
H         0.61189226400442    0.18375068997751    3.49454958573974
H         0.49335647069346    0.79372729926648    0.56926330535902
H        -1.05753723600989    3.35512226835599    0.17554885050348
H        -1.61726458725390    4.50368644802558    2.97072061999367
H        -0.66496882524504    2.71298913065412    5.01287169722957
H        -1.78823656614871    1.46518433489479    2.38140033093669
H         3.55689882958823    2.02461557230790   -1.22505211534386
H         3.28276529038067    0.29432287816873   -1.24847254633991
H         4.93099414409517    0.91937320422108   -1.25107764714835
H         2.15178917977409   -0.96282478459335   -0.10110485177016
H         1.77547964014109   -1.46274011295687    1.53885537943084
H         3.23675578614254   -2.06660698877456    0.74689970011739
H         3.15515711961029   -0.61055101850220    4.70468343032030
H         4.52905899103009   -1.48289949505419    4.02386001233982
H         2.90447011007073   -1.75299062660022    3.39238895230100
H         4.70887428580859    0.56905997714206    5.40872445062578
H         5.94396022865357    1.70666215343706    5.90143579389876
H         6.40947753421643    0.09570176100104    5.36960598995765
H         8.73247217298124    3.15710447175918    4.10082450659396
H         8.32294185041903    1.64613046624179    4.90885622834300
H         7.44601394639011    3.12217223969344    5.29226316051420
H         9.11917805506181    3.09198249919149    2.10010972375315
H         8.17144529707780    4.58264175114453    2.16949133298505
H         8.29774441143444    3.66940100872301    0.66836674018602
H         4.96941867071756    3.40982791880857   -0.48111535455046
H         6.58922992983189    2.82696531551963   -0.87868798406593
H         6.36703271581383    4.32611573485720    0.03304624837145
H         2.68863082123843    5.81191355304311    0.31716702349422
H         4.66255722559504    7.25888709813944    0.25826278589920
H         6.42074189249660    7.04116848097584    1.97865487966247
H         6.20713294395907    5.29104523313825    3.71709824723768
H         4.28256089295612    3.80052768941609    3.73427405348800
H         3.11622905421843    4.09125328456942    5.39598946365339
H         4.15932936167478    3.67356664437347    7.54833796747585
H         3.74810077512512    1.55395311655369    8.75501588417856
H         2.22530374148656   -0.12230948676709    7.76268804688605
H         1.17453437246819    0.29176553864476    5.60143788021880

