78
CSD_code = ZOWFEY | q = 0 | S = 0 | Stoichiometry = C33H40ClIrOP2 | MND = 6
C        17.41872425441790    3.57617385664190    4.72464492387144
C        17.77084396650860    3.57618436512306    6.20679629668183
C        16.89296741907509    3.57622656711648    7.27209784377345
H        15.82999971715484    3.57624264380697    7.09031833301629
C        17.38742806755377    3.57624516269122    8.56918962617431
H        16.69853807966697    3.57628882206565    9.40099476024442
C        18.75005438444715    3.57622128486576    8.80288448977464
H        19.12745442776264    3.57624053780446    9.81471638423224
C        19.63904185944965    3.57618438719202    7.73698632470254
H        20.70511619736206    3.57616456565188    7.91482920299527
C        19.15139482948059    3.57617225385744    6.44726585247248
C        20.01480616821739    3.57615691243840    5.19953675772030
H        21.08412229613392    3.57615036434279    5.41005897062157
C        19.55105346147207    4.77988640234485    4.42382001518687
C        20.33348688577157    5.82478016871678    3.97324255245577
H        21.40554695216182    5.80147595863388    4.10457494784769
C        19.72555083159334    6.91052058208370    3.35833742351692
H        20.33194225012286    7.72451095534261    2.98921328526590
C        18.34744238719111    6.97960195948075    3.24905611325527
H        17.89298882656266    7.85219451975201    2.80283942604732
C        17.55593047204986    5.92662062727616    3.69964183760960
C        18.17254690506203    4.79865770295199    4.23138544181356
C        15.50991296150624    6.73710030628453    5.45300168850777
H        16.18210750269368    6.15607313900079    6.10213878861463
C        15.96768018655897    8.19103267431748    5.44936439263287
H        15.31499095944692    8.80825362077378    4.83557728371413
H        16.98883546426373    8.28085406030386    5.08349615363148
H        15.93788908801502    8.58113879527924    6.46558451268341
C        14.09024098559688    6.59302237420380    5.99350617895645
H        14.08860862302221    6.72865493610703    7.07349367361465
H        13.69900964632101    5.60303593840219    5.76779134443658
H        13.42265672663243    7.33304998058983    5.56098976769644
C        15.11666035525629    7.01399102143052    2.48982498302089
H        15.61188645103320    7.98310716460393    2.63565517195721
C        15.49448215324581    6.44543511713379    1.12594316885332
H        14.96372100425936    5.50903382853449    0.96025194852530
H        16.56684339622003    6.26614514518751    1.05018887130464
H        15.20690923098028    7.13934934947557    0.33727766220553
C        13.60278016772127    7.17697464698289    2.59116209529954
H        13.22909209738920    7.71251480384169    1.71955875521410
H        13.31742333762825    7.73478710099637    3.47897958139516
H        13.12515759898836    6.19882552625793    2.62128337797669
C        16.46614834252819    3.57607193575189    2.16500684520162
Cl       13.37738947889339    3.57621327121993    2.53508633836213
Ir       15.47344214279143    3.57626340712659    3.78065381421043
O        17.16857552316235    3.57620758643335    1.26308382123318
P        15.73967471329696    5.87133021600813    3.81235863873629
H        14.69327015184740    3.57602374284506    5.09798931127525
C        19.55104114669853    2.37243127412763    4.42382346355591
C        20.33346226215730    1.32753242044197    3.97323475548613
H        21.40552230886602    1.35082604229149    4.10456048138709
C        19.72551770773146    0.24181433221841    3.35829910852060
H        20.33189695282320   -0.57218090844479    2.98916691946381
C        18.34741530301207    0.17276834316129    3.24897899113399
H        17.89294620634027   -0.69983065361451    2.80279042359052
C        17.55591956820398    1.22574672504128    3.69958079786122
C        18.17253747048838    2.35368718325394    4.23136932295279
C        15.50986715729740    0.41529670315138    5.45306833808835
H        16.18193608324920    0.99646057250750    6.10221306215592
C        15.96786324213230   -1.03855302427783    5.44946298921591
H        15.31532744612156   -1.65589608119200    4.83563508295657
H        16.98907272020421   -1.12823723782304    5.08370728712485
H        15.93801813641012   -1.42860579886227    6.46569827073046
C        14.09012125015684    0.55922428970542    5.99341457802860
H        14.08841227705135    0.42366757777415    7.07341037908868
H        13.69875611746317    1.54913559728929    5.76757848326047
H        13.42270388934608   -0.18094650237889    5.56088732122059
C        15.11660056219498    0.13839079900535    2.48977985017560
H        15.61177631326844   -0.83073033746053    2.63568824775691
C        15.49454583741751    0.70685817317311    1.12589422966769
H        14.96383194385456    1.64327602925030    0.96014963916268
H        16.56692214455517    0.88609296068209    1.05018060051554
H        15.20696937905638    0.01292578516281    0.33724536006658
C        13.60271101430156   -0.02453787278436    2.59106330579431
H        13.22903939748322   -0.56005912340586    1.71944245205124
H        13.31727679105425   -0.58232135016082    3.47887492357316
H        13.12514609493483    0.95363702337883    2.62114702862652
P        15.73967434757016    1.28093676960492    3.81237532824507

