40
CSD_code = ZOWGAV | q = 0 | S = 0 | Stoichiometry = C17H15O5PSW | MND = 6
W         7.96598550689595    5.46770220347644    3.27698072516899
C         9.86082311586073    4.84041841996541    3.09327797322835
C         8.00412665627208    6.02341974847099    1.35683472773154
C         8.58145961850306    7.27742433837374    3.81698388985976
C         6.07545941461952    6.07595933950441    3.45211848490248
C         7.93208511071977    4.85295667046459    5.17767262187346
C         5.67717200986280    2.56573523584147    3.51451820087423
H         5.92777948781744    2.51306915862795    4.58013517622688
H         4.90002085008677    3.32187529601546    3.38218740316372
C         5.26066121204004    1.24629056525977    2.94183332000648
C         3.93891185117200    1.24838511742130    2.23831397149349
H         4.01118898359928    1.81337162103971    1.30792236757239
H         3.18994201875606    1.73119795708340    2.86462093661422
H         3.59461917099986    0.24581681192437    2.00875071017922
C         7.37907394551338    0.37715624595078    3.77258052606172
H         7.97108516721019   -0.53480495468817    3.78112459094182
H         7.22927420359744    0.71523712196214    4.79828586419100
C         6.09904143792994    0.20624642668548    3.03103193590769
C         5.89730657757843   -1.14730417756868    2.42155867460294
H         5.03755591631980   -1.17823928601218    1.76161014991299
H         5.76602732790754   -1.89555213313830    3.20345242303878
H         6.78044445443761   -1.42027580241325    1.84548122530380
C         6.63046912951154    2.98510072682229    0.91355488479519
C         5.73299892492688    3.93300271023584    0.42956542172764
H         5.41795762968073    4.74717258976663    1.07171342990345
C         5.25036746707082    3.83596492278831   -0.86116406024396
H         4.55239195547919    4.57184820431868   -1.23213738859159
C         5.66798687510044    2.79724121162226   -1.67926635227945
H         5.29415183363691    2.72417123806055   -2.68959262528853
C         6.56948202845254    1.86034818563994   -1.20435647456781
H         6.90111012313050    1.05572795331057   -1.84380893218295
C         7.05315211043094    1.95192164808725    0.08936163032317
H         7.76406517018591    1.22560231019229    0.45716525366448
O        10.93871705685670    4.49109240630353    2.98278885178760
O         8.03600514316309    6.32379405275411    0.25665757108133
O         8.93079288944761    8.31805530521345    4.13101550011297
O         4.98967031282181    6.41998249287865    3.55764782805262
O         7.89835486120056    4.47329523510508    6.25415129981738
P         7.19340142693919    3.20711797054114    2.63935319964767
S         8.50638102427570    1.63627491211393    2.98867506337422

