41
CSD_code = ZOWKOL | q = 0 | S = 0 | Stoichiometry = C17H22OTi | MND = 12
Ti        4.82310167110779    0.50032874811686    3.16761885136056
O         4.66620810891631   -1.05599262908226    3.86833057362998
C         4.34000470368032   -2.19343786559312    3.16212440847491
C         5.42076383325992   -3.28988536170462    3.25002882817134
C         5.11942172577220   -4.14579304214821    2.02175473903878
C         4.77267786012136   -3.13644440120208    0.92090319161620
C         4.23482474396664   -1.87780059445585    1.64404392482207
C         5.06292871840430   -0.61034619300751    1.38984645249836
C         5.39878319009720   -4.04736041126097    4.56780020420256
C         6.15707338694382    1.95461730333752    4.61099085045459
C         6.68130492064659    0.65104523870533    4.70120272435929
C         7.16669796663731    0.29256108432212    3.43357494919485
C         6.93197642964253    1.38044941001840    2.55061624351303
C         6.34330921684200    2.41417002137781    3.29597768087845
C         3.42378695338743    2.22674647908398    2.22987349721170
C         2.79012827836788    0.97744480390891    2.02353128044608
C         2.43743649533624    0.45507847044449    3.28287652906312
C         2.88846644430253    1.35644289994744    4.26688467671189
C         3.44799908535486    2.47015988506289    3.60800375494830
H         3.38842922601038   -2.60589753957488    3.55031244912167
H         6.39067728992410   -2.79363971919765    3.13229536302495
H         4.25890388682423   -4.78293068622629    2.23481689473488
H         5.95667730596303   -4.78624095456650    1.74701596634558
H         4.04300150774184   -3.54678369664122    0.22335404999357
H         5.66816968880404   -2.88304348955235    0.35135387477323
H         3.18825591613031   -1.70385965019155    1.37329681037277
H         4.76400592538876   -0.14510094441045    0.43991733333050
H         6.11210450932443   -0.91568727464703    1.28575911303652
H         5.52757089508520   -3.35057967915207    5.39377143730943
H         6.19970360578575   -4.78325347091283    4.60213760179918
H         4.44893868237259   -4.56367103498694    4.69504925635163
H         5.80512680581346    2.54401590313239    5.44753401850430
H         6.77037701919922    0.06107322044890    5.60522271219039
H         7.72829255283457   -0.60380230655297    3.20291281223811
H         7.31483901033387    1.46779918074454    1.53964875373434
H         6.15453789475077    3.41748147556710    2.93807605492876
H         3.69164737565646    2.92959517864251    1.44990483993299
H         2.46108292215083    0.59579241368974    1.06577682211869
H         1.85618763706531   -0.44055189116948    3.46326558987121
H         2.69397824998706    1.27882781792445    5.33045948612021
H         3.75049836006616    3.39257330176229    4.08283539957190

