57
CSD_code = ZOWLII | q = 0 | S = 0 | Stoichiometry = C28H22Cl2FeN4 | MND = 4
Fe        7.75436183960660    6.32538859991482    2.06536581660763
Cl        8.25976919429902    4.42998653293644    1.30230541602931
Cl        7.31239196133866    8.35964020035370    1.75630577045200
N         5.08907453071498    5.59616001855280    2.86162855894412
N         6.04036511321767    6.78349116130024    4.41636135323410
N        10.30185053580310    6.79219880603899    3.31652507414462
N         9.19684789719309    5.26620985060391    4.40365069644180
C         6.27360414941696    6.16529975869769    3.22397879076407
C         9.09269503699865    6.16667699705471    3.38561490901780
C         4.84150902783790    4.86264587522619    1.64932408826164
H         4.26694541663315    5.46844484973643    0.94338606840479
H         4.28149289722481    3.95564001116912    1.87883888095737
H         5.79350382080126    4.58216269944630    1.19762854320536
C         4.12396872461120    5.83269952985605    3.81111909778397
C         2.79048389289257    5.46811586447708    3.90639823160969
H         2.30310742063071    4.89620875202865    3.13287513784868
C         2.10354393614896    5.87258725467898    5.03862306933153
H         1.06309492545843    5.60612272571824    5.14605114897077
C         2.71890699084770    6.61700687667849    6.04052146315531
H         2.14419175526799    6.91236718357921    6.90506455068767
C         4.04917491305192    6.99002327825599    5.95082211560696
H         4.53047826816542    7.57195462380791    6.72146055230420
C         4.73944922766572    6.58763073224200    4.82051952640555
C         6.99895417503351    7.37351996189462    5.27647746270785
C         7.24990291586840    8.73350881420718    5.26839409788171
H         6.76417669177180    9.35838800595733    4.53638186887097
C         8.14835792365977    9.25844956209737    6.18380144316739
H         8.36085225181700   10.31654126643756    6.17642381558977
C         8.77031763949730    8.43396769657351    7.10585546240703
H         9.46477489866701    8.85013552961123    7.82018695489246
C         8.52331994707324    7.07019809838658    7.10792548680981
H         9.02775528625411    6.42246062287240    7.80955339726442
C         7.63495854164139    6.53132083451320    6.19279792289034
C         7.40686062540654    5.08320395341714    5.99228815818478
C         6.42752220384606    4.34339214387047    6.63309786597400
H         5.83713619363792    4.79947602994872    7.41397206602741
C         6.20159602903426    3.02889812966896    6.25638475577888
H         5.43604716874875    2.45570083600120    6.75752133433826
C         6.93621952349892    2.45616866602997    5.23211019696151
H         6.74065017069047    1.43816004310339    4.93188044246930
C         7.92593374237825    3.18234651231259    4.58877786306897
H         8.50067995816998    2.75652875699849    3.78218686205753
C         8.15520353658689    4.49154843695903    4.97084412816704
C        10.43917244458073    5.33704956718494    4.99164771350503
C        11.00111069785684    4.65433281581960    6.05658172950936
H        10.44376236571630    3.90385574945334    6.59538103618553
C        12.30593143858599    4.97520065491492    6.39020453494574
H        12.78205402259766    4.46434770271259    7.21318577020427
C        13.02023846004579    5.93950911268623    5.68559041045769
H        14.03675417819644    6.15699843752833    5.97621190221638
C        12.46193112059165    6.62433366977848    4.61940085814569
H        13.02573328661851    7.36591946971654    4.07616237560652
C        11.15459348739796    6.31271927903539    4.28184648020765
C        10.67702083805774    7.80089369072575    2.36218375056424
H         9.78030997879334    8.19340552522904    1.88186419438548
H        11.34440200716987    7.38321043297125    1.60355383708703
H        11.18645477467314    8.61764780901124    2.87445496129755

