118
CSD_code = ZOWMUV | q = 0 | S = 0 | Stoichiometry = C61H48ClN2OsP3S2 | MND = 6
Os       11.06660862894539   15.27899705560045   12.74621915655628
P        13.30100812038556   14.54307126188211   12.90313424445707
P         8.77012667202776   15.63969554998384   12.46861845973977
P        12.35102525909440   18.39709459849276   15.96403364308379
C        11.26008198328209   16.46979783521158   14.32506618390441
H        10.73987469872368   16.24617213373958   15.26717081135459
C        12.13336678631814   17.53029594812755   14.40755191944760
C        12.75439769769053   18.17055025809303   13.30500681790775
H        13.41988278296027   19.00627043123835   13.49046824021298
C        12.41537849308940   17.85177450172048   11.99851553439529
C        11.58137085416183   16.83293233455985   11.60345145013736
H        11.23526579636633   16.91986171106561   10.56667502299497
C        14.41814002976453   15.51083279425776   11.84636708960345
C        15.33378978390737   16.43381672941014   12.33641417469751
H        15.46227502881148   16.55866099912515   13.40221879819314
C        16.07603015229795   17.20454258245751   11.45810622248376
H        16.78566336733799   17.92231047826255   11.84483715174660
C        15.90196285458582   17.06942327408192   10.09162456810700
H        16.48089757270134   17.67575031735061    9.41067896680310
C        14.96624098135198   16.17297326143720    9.59829099121445
H        14.81240036559531   16.08286989137143    8.53299225517704
C        14.21926172354858   15.40533183110463   10.47020014863318
H        13.46583875136036   14.72236317028079   10.09795219515694
C        13.58462749544720   12.81882360989545   12.36247829290483
C        14.59993283722544   12.43056783044675   11.49718861388156
H        15.26939261526108   13.16493117775692   11.07124006106457
C        14.74220860908529   11.09542947321169   11.16119207504213
H        15.52216746038764   10.79942016514824   10.47446288043681
C        13.88615708718001   10.14452552770957   11.68875794288056
H        13.99352093522733    9.10693460001380   11.40908761030800
C        12.88524362298497   10.52660731070841   12.56723571413884
H        12.21290084774168    9.78778570277616   12.97822467103689
C        12.73623856944312   11.85705905476406   12.90646652605757
H        11.94668114274827   12.16688760470984   13.58072638257993
C        14.19907376425557   14.39037966993472   14.48884649033204
C        15.57084833144104   14.14459831061008   14.49701701425914
H        16.11510809820599   14.11109338478416   13.56343582720848
C        16.23050521859645   13.93523335641128   15.69317349462713
H        17.29571801360528   13.75295709794949   15.69458669978033
C        15.52533018612541   13.93440668086658   16.88743696529146
H        16.04236413774591   13.75461268418151   17.81879084317656
C        14.15683766086466   14.14254635955454   16.88119461704401
H        13.59565082825067   14.11198043917394   17.80296235837775
C        13.49603794048306   14.37890437738179   15.68735954260127
H        12.42783358610583   14.54089295494777   15.67863666472422
C         8.24888914934782   16.63586101052987   11.02944770854973
C         7.42846616956344   17.75546205032574   11.07799636061331
H         7.05724563912982   18.12121855105745   12.02541434248202
C         7.07877554056856   18.40423202644454    9.90560732451245
H         6.43972188670487   19.27485151132492    9.94742563085845
C         7.53863082972572   17.94142578828421    8.68468299730148
H         7.26214349085262   18.45336737144359    7.77464230777315
C         8.35091932278367   16.81933632091900    8.63132209706263
H         8.70744997358260   16.45298380510345    7.67987341805822
C         8.70442845286405   16.16940313332541    9.79771765861770
H         9.33718405715537   15.29091186798465    9.77151348889284
C         7.64005885518101   14.22873435846658   12.23214859545398
C         6.29451958755839   14.49994833224793   11.98320045111137
H         5.94985127920796   15.52558175252474   11.95476825089343
C         5.40675327339265   13.46302346617456   11.77530842291818
H         4.36490812322297   13.67746973724762   11.58469054896117
C         5.85207250801750   12.14983243903090   11.80576606761933
H         5.15613217511161   11.34115091876519   11.63652873463606
C         7.18627686011025   11.87794731209744   12.05120344758519
H         7.53686916244303   10.85679706608135   12.07272397427653
C         8.08059922944322   12.91301037807345   12.26558529043480
H         9.12001843976665   12.69921380405387   12.46157719479490
C         8.04261271416158   16.50694068316524   13.89395255338731
C         7.20872992460436   15.87989939460531   14.81085651498077
H         6.92019104476645   14.84952891082839   14.66160746089667
C         6.75793590153157   16.57341993706209   15.92153179921682
H         6.11480842981647   16.07941227005080   16.63478587601533
C         7.13070731377895   17.89166417217013   16.12015474930712
H         6.77176448360558   18.43314766988993   16.98386990082210
C         7.98126160991822   18.51657570105355   15.21794140635289
H         8.28187810223139   19.54323954875380   15.38008227476932
C         8.44965220237775   17.82217908708041   14.11888280424263
H         9.14092809466063   18.28312792898247   13.42215423316282
C        11.40063178436619   19.93823917978236   16.02501407691773
C        10.95931627863471   20.53398900449295   14.84833291771422
H        11.18992985035697   20.07594921659645   13.89665990729403
C        10.21814296815761   21.70100749443546   14.90902889721388
H         9.87225863675955   22.16354598117983   13.99692820842698
C         9.91492805212772   22.26964504246308   16.13610105605752
H         9.33274503413175   23.17776276625528   16.18000741973930
C        10.35148006466361   21.67264378467511   17.30944017656238
H        10.11078711675323   22.11584423942430   18.26416378232322
C        11.09295018558252   20.50718042839986   17.25932227546229
H        11.43408113810790   20.03138718775912   18.16924400438523
C        11.80233777744523   17.41027295525446   17.36766958142943
C        12.69383230402531   16.83304411829841   18.26394207386550
H        13.75635896943221   17.00635417507796   18.16373711765515
C        12.20678423429572   16.03210434481745   19.28278739809757
H        12.89494335311274   15.58467783184794   19.98515083067255
C        10.84687073920226   15.79455029069319   19.39758378633859
H        10.47702080413465   15.14729329773491   20.17785386947447
C         9.95805227589038   16.38073468173313   18.50974682963019
H         8.89938209753872   16.19184273425818   18.59363621572999
C        10.43016293792807   17.19795953715370   17.50078526923184
H         9.74201166382802   17.67031335984214   16.81211828939724
C        14.09922681425753   18.80193409308679   16.17244105825584
C        15.00788142618218   17.76440780238105   15.97242810497063
H        14.63770615310464   16.78023540803056   15.71662958324284
C        16.36232480265978   18.00619996235705   16.09750655238778
H        17.06698687223186   17.20241654829695   15.94418820436834
C        16.81013462471693   19.28025323399012   16.41427031654885
H        17.86870301040876   19.47064866394896   16.50713075670151
C        15.90537865564740   20.31203359603047   16.60696268794072
H        16.25956968343670   21.30295723311183   16.84852570704319
C        14.54601916664417   20.07916037289713   16.48732748586557
H        13.83586579467941   20.88156247661516   16.63195302156373
S        11.10301589949339   11.74458095217037    9.50127678244839
S         9.41207513253228   13.52243743181882   16.72246468539408
C        11.03294959397135   12.98012529434583   10.48913943287419
C         9.95827350675789   13.69507813613225   15.24173802852325
N        10.97119733583749   13.92341767071707   11.18905823810848
N        10.38953143905506   13.81404746409883   14.15410177277924
Cl       13.05350062221569   18.96439738119118   10.78314437751067

