60
CSD_code = ZOWPOS | q = 0 | S = 0 | Stoichiometry = C23H28ClNO5RuS | MND = 9
Ru        3.96778706650035    5.23300889082998   21.25689381665144
S         3.17711769225930    1.79687232917699   16.79528139831070
Cl        1.64279549880846    5.10450317353777   21.20117616171764
N         2.35921079944370    1.91518350542302   18.23253580275648
O         3.83904661427447    3.14998433628993   21.28058222041215
O         3.78415052223350    5.13472175243385   19.20647230760923
O         3.16925294775657    1.15949067624018   20.56449413963997
O         4.56686098918298    1.60966482517712   17.08484617516867
O         2.52572543975402    0.85250855030667   15.93751495583194
C         0.91093561003781    1.93996336550843   18.12529601381322
H         0.65923199815820    1.15747413005829   17.40728859426029
H         0.56965981302290    2.90853585868204   17.72842828213352
C         0.23878542185581    1.67984896882377   19.46976881490076
H         0.48294030523316    2.49582421989690   20.15326758666323
H         0.63525652020904    0.75306477922674   19.88506711886804
C         2.95797127057681    2.90516523861303   19.05908323914374
C         3.26338326136445    4.17334595560708   18.55793878820605
C         2.75304327604071    5.78016542289823   16.72262165599127
H         2.78501014099085    6.56386188627713   17.46363399985303
C         2.47950567207150    6.05629488685568   15.39536441725434
H         2.30211625800738    7.07616845163013   15.08781928890023
C         2.42509802512428    5.03394617305678   14.45891274652544
H         2.20586090988734    5.25611206346173   13.42563014573748
C         2.64900957192477    3.72394804509054   14.85459561262953
H         2.60684450083353    2.90085138158631   14.15890162037766
C         2.92925345227013    3.45555490375499   16.17725601530839
C         2.97615695227686    4.46549577356071   17.13046148121270
C         3.33898226352262    2.46569834951508   20.35796343697683
C         3.53492980812184    0.67215345464156   21.84475745363494
H         4.61425233893348    0.75448683593306   21.99437078487965
H         3.23320976668354   -0.37219442710914   21.86095034859334
H         3.02067148277593    1.23302614813597   22.62931555141964
C        -1.27294826308916    1.58283702092429   19.31208506370331
H        -1.67202090811143    2.50956032683647   18.90663062794247
H        -1.74153324349243    1.40203512563867   20.27594638376032
H        -1.53672632462968    0.76957892845463   18.63955080020713
C         6.60457528054395    3.95294539977486   23.13699511200851
H         7.24084555088552    3.55601877765249   22.34965948063990
H         5.94542514555127    3.16149088553124   23.48910011010528
H         7.23550570179763    4.26517243723879   23.97087862114657
C         5.80450039678039    5.11963763000158   22.64601791243932
C         6.17312981426654    5.81753944825921   21.48123899162490
H         7.05408628787474    5.51664290025983   20.92788168170227
C         5.43252961611735    6.94755930428658   21.05948541746856
H         5.76323910078397    7.48725187743691   20.17929733966226
C         4.33124835071841    7.42627812529666   21.79910656395005
C         3.95686339261088    6.70033812085707   22.96498987701669
H         3.13036269456461    7.06232700388598   23.56979639728712
C         4.69008451549656    5.57895944582619   23.39643940657715
H         4.43568990006043    5.09169906294878   24.33115517597257
C         3.57891233808023    8.66984701600117   21.38495974256629
H         2.77003393922646    8.83199066266703   22.10554067757461
C         4.50038696239218    9.89284714993632   21.40775927963436
H         4.94649175216793   10.01957564161131   22.39212242286844
H         3.93066636102274   10.78746919162110   21.17001210975097
H         5.29939813542998    9.79321197084611   20.67696471549399
C         2.94849927381985    8.47071147752480   20.00434704755789
H         3.71559320746529    8.37764035820207   19.23875148482869
H         2.31152127286918    9.31640869029632   19.75692330552078
H         2.34268355866705    7.56409611506781   20.00767427561574

