64
CSD_code = ZOWPUY | q = 0 | S = 0 | Stoichiometry = C27H28ClNO5RuS | MND = 9
Ru       11.65549841224084   10.37827027701558   10.41923426387421
S        10.96959112476653   15.01931598337094   13.65923268554914
Cl        9.77395059341147   11.15047702447324    9.30239808170058
N        10.82643958835974   14.82930452867959   12.02213789351980
O        12.38444848323498   12.29144178507870    9.99803160018050
O        10.74428465053952   11.18016982081702   12.08453475271832
O        12.44244352350341   14.50856809876682   10.05792063798900
O        12.27069861697433   14.55444255837627   14.03801689003969
O        10.59082019752373   16.35173123990338   14.02308578024755
C         9.76278741387330   15.56562245844425   11.34829627309358
H         9.82086408993276   16.58280403358882   11.73650261440283
H         9.98615468925966   15.56209122865932   10.27892329762788
C         8.42251864560956   14.94782263213482   11.63485167671483
C        11.07339779311098   13.49235832265849   11.62237595716992
C        10.54626780587586   12.41047773289519   12.33558339890235
C         8.72291439505525   11.71924575246205   13.88018398003323
H         8.63816809166574   10.81488172188374   13.29718402156846
C         7.89910293362270   11.95440840937607   14.96469791536971
H         7.16186393278164   11.21702242693476   15.24522968577770
C         8.00933381025481   13.13063765784300   15.69205110972597
H         7.36328626982689   13.30701940945811   16.53853862593001
C         8.94703145750931   14.08237768146069   15.32501535965149
H         9.05421478521044   15.01441102032921   15.85696245048139
C         9.76548167166527   13.84147327328383   14.24242128228392
C         9.67231172479090   12.66915937536051   13.50505513599731
C        11.97430957049845   13.34920746168082   10.52916371385038
C        13.35167458821838   14.42749508069362    8.97210832849729
H        14.25192953644452   13.88102699824393    9.26180964990138
H        13.59908024768442   15.45524255863848    8.71860982901692
H        12.88799509493480   13.92363933066901    8.12033241838782
C         8.00940577308662   13.81572515716972   10.94278133306839
H         8.60833963816174   13.42014169324242   10.13594471045025
C         6.83273509615498   13.17582468535361   11.29181404733508
H         6.53304721680182   12.29087541577123   10.75145513369557
C         6.05447242731510   13.66627816392702   12.32561085380325
H         5.13627180330924   13.16664808266303   12.59862190522158
C         6.45201752420383   14.80482395079374   13.00706368620824
H         5.84277538434477   15.19591085020804   13.80898843013134
C         7.63325184962646   15.43943449798465   12.66752271012884
H         7.95821774354647   16.31561441500925   13.20953498064918
C        11.25186157894879    7.99605966847346   12.84583961181100
H        11.94494011091087    7.38599285664521   13.42478304625626
H        10.33620997818239    7.43419404681620   12.67715171437884
H        11.01073467960657    8.88363714060417   13.43249921283876
C        11.87770864082392    8.41137361091202   11.55016474339774
C        11.26060416819531    8.14543224690808   10.31395551451870
H        10.33104888675063    7.58649559963942   10.27999562447577
C        11.87582551305406    8.55382941799651    9.09827046702265
H        11.39339241958473    8.30633092666621    8.15927737545034
C        13.12137806324557    9.20867873519549    9.09911754135138
C        13.74472272329384    9.45402816995638   10.35665917266689
H        14.72728229742716    9.91404153627068   10.37506297893852
C        13.14729696418167    9.05847068416434   11.55608004282621
H        13.66024970918789    9.21110309796445   12.49778715496891
C        13.79927378619734    9.61194687075029    7.81060104338911
H        14.69619264432024   10.18756387145172    8.06652392140563
C        14.23191633405861    8.37094359028862    7.02398286817060
H        14.90184395974593    7.75239458608227    7.61806976627895
H        14.75150933482985    8.67083906425863    6.11752476455507
H        13.36875915878682    7.77257231679636    6.74232563727279
C        12.87917402636172   10.50732116695231    6.97631340779716
H        12.05763758339059    9.93688609803293    6.55109829314642
H        13.43621510366011   10.96524199058606    6.16262918099690
H        12.45742414038011   11.29259991130714    7.60385981527584

