108
CSD_code = ZOWRUA | q = 1 | S = 0 | Stoichiometry = C40H61N4OsP2(1+) | MND = 7
Os        7.78017693304668    3.90886684716893   14.40197677987206
H         7.17095177141378    3.53940831560472   15.78497333739073
H         8.21799779358941    2.54053590823058   14.99045071670328
P         9.62422251969024    4.99025157109259   15.62983483410951
P         5.91384043599705    2.65839774092535   13.39742692738895
N         9.94121645780565    1.97838051861294   12.90581647851492
N         9.51694266565337    3.88036997768952   11.94042225834968
N         6.28910579542854    6.48769038418813   13.94866416556762
N         5.58748189861939    5.80471215905049   15.89196321835948
C         9.18742723688279    3.10018578156135   13.01176823295040
C         9.94400131187313    0.79193692124053   13.71671525737978
H         9.18521725850142    0.86666784223920   14.48950330822258
H        10.92124324873988    0.65689578435150   14.18302540746949
H         9.73168634273669   -0.07833553734771   13.09226657782484
C        10.75863599648222    2.05573559213322   11.79761220035208
C        11.69864712307731    1.16470268003688   11.30183409174636
H        11.89601751525443    0.22260403166970   11.78715953676909
C        12.38017406385678    1.53718667389330   10.16027973331770
H        13.11987239519810    0.87320110920823    9.74210801595291
C        12.13485620104438    2.76107424125695    9.54236883654156
H        12.69333943851822    3.02401927470566    8.65788689430573
C        11.19834631117147    3.65117992572229   10.03159914318349
H        11.04790444640733    4.59305833523306    9.53396738375328
C        10.49406295700940    3.28466856459251   11.17138657576969
C         8.78764683253296    5.06851259901791   11.78963517582064
C         7.90514290229922    5.25836892571418   12.85352958893633
C         7.10838295889902    6.40353149776538   12.81617109739403
C         7.17585602479543    7.31811625267389   11.77441418425582
H         6.56965881156009    8.20606466887644   11.75717846059936
C         8.05584095282084    7.07839832878715   10.73255616522602
H         8.11140259794720    7.77757204633853    9.91359611383148
C         8.86646386036853    5.95624626747134   10.72551849102521
H         9.53194408960004    5.79207371743961    9.89674252368669
C         6.44683876292817    5.50652325914027   14.88516521307775
C         5.32215646873450    7.39254637466455   14.33310247596829
C         4.75870942182335    8.52457853490017   13.75780657154479
H         5.05422050901935    8.89246149591458   12.79111567164248
C         3.77344663654373    9.18315305720312   14.46776879325610
H         3.32165064570890   10.06419822572533   14.03989677236459
C         3.34610140686155    8.74124935889969   15.71764412242764
H         2.57459398372292    9.28787968400574   16.23613191756755
C         3.88964317101820    7.61347231961466   16.29952155457986
H         3.55436031100887    7.26548924899126   17.26311178022853
C         4.87735887087949    6.94781775461206   15.58905648098194
C         5.36651915272869    5.13217557235378   17.14309463102492
H         6.04530175965328    4.29004223362721   17.23678379066236
H         4.33733417943252    4.77228837988373   17.19878189296269
H         5.53892586656213    5.82556213090457   17.96842017175393
C        10.52343599972869    6.48671396642087   14.94089909770115
H        11.19379960800194    6.78817971460365   15.75208919250499
C        11.37219172188011    6.19953136469083   13.70594270493316
H        10.74623511015097    5.97421184410683   12.84814977932252
H        12.06580070274330    5.37645305064633   13.85824089211862
H        11.95501926712386    7.08688723159041   13.46235338413330
C         9.57038232493399    7.64525813928598   14.64876010256899
H        10.12111936569371    8.58449691450472   14.64606192710284
H         8.77469510200333    7.71999893406332   15.38763450551862
H         9.11570861187991    7.52811586606058   13.66955308764266
C         9.04121428704578    5.69845386030200   17.28100508793386
H         8.07772243089097    6.15058455591835   17.00913285448551
C         9.89215125141029    6.78290695505509   17.94162804643353
H         9.43028339494819    7.04231956143979   18.89377812459184
H         9.94739624856165    7.69123086410475   17.34972740977428
H        10.90028716844433    6.43909602218851   18.15114600755981
C         8.76761172259781    4.59061621621111   18.29770152673423
H         9.68622449627303    4.29977314335984   18.79869321678782
H         8.33560069559380    3.71315832302063   17.82258857877073
H         8.07744096225153    4.94717680346494   19.06044068396071
C        11.09606753582090    3.85388981919360   15.95555497586869
H        11.37666358404818    3.56992057607961   14.93028865925064
C        12.31528616356577    4.47627181506354   16.63441572131986
H        12.09363081886471    4.74547904065692   17.66325858036615
H        12.69734120577551    5.34919660409373   16.11477981370794
H        13.11248861735067    3.73402153677246   16.65759883864102
C        10.73367780829448    2.56913972972099   16.70142381549750
H        11.46456442053378    1.79547909878359   16.47328826026099
H         9.74877908074230    2.20854412232319   16.42001296916883
H        10.74967269425548    2.72372364059554   17.77529710226846
C         5.24028901468498    1.27703061396981   14.47604762748469
H         4.41443560506817    0.84896881283079   13.89907134560724
C         6.25849252080197    0.17691483970349   14.75849860521051
H         7.05725251558566    0.55713543261477   15.39055651579626
H         6.69270788069108   -0.23058387568956   13.84996757049098
H         5.76970564301232   -0.63615713375013   15.29262875744796
C         4.69317404115441    1.79497018565018   15.80327250158018
H         4.12628255900576    1.00744475607249   16.29677697046821
H         4.04077018220345    2.65362388995482   15.67152927880767
H         5.51171707246733    2.07994291948816   16.45860607929955
C         4.32792011190796    3.63179948470883   13.07986960358489
H         4.26143674116174    4.25910097488580   13.98060573660477
C         4.45545701494142    4.56026771521663   11.87230996994132
H         4.22500507612977    4.02615200711660   10.95479143370953
H         5.45358905620777    4.97963587999356   11.78269788415705
H         3.74762090338762    5.38353333688044   11.96237223490567
C         3.02191828005394    2.84649069422954   12.96260435231983
H         2.21590781303881    3.55569289876461   12.77638632397580
H         2.77331261195770    2.30071994660241   13.86721914124763
H         3.04432374043739    2.15093305712169   12.12947113716252
C         6.35824458912699    1.68216501090768   11.84737478232317
H         7.27994962017706    1.17984224290714   12.17566708597850
C         6.71611901334708    2.57919083611435   10.66110533616872
H         7.42944657554904    2.07255087714346   10.01207607854403
H         7.15277276063560    3.52049970152681   10.97978453761986
H         5.83474674958557    2.80338704478039   10.06712668746149
C         5.37576510603760    0.61213996916886   11.37544815760185
H         4.44759102653713    1.05547717042191   11.02664382353275
H         5.14891282778640   -0.12496466971068   12.13915240355243
H         5.82207265045313    0.08624948845635   10.53193953787383

