107
CSD_code = ZOWSEL | q = 0 | S = 0 | Stoichiometry = C40H60N4OsP2 | MND = 6
Os        8.30657905087598    4.11281872921870    4.21608057393946
H         7.87237485508955    5.56098788243437    3.60269654884427
P         8.08420846302691    5.19807007744071    6.31112315444733
P         8.40472227741441    3.45062884681285    1.94250790587172
N        11.00652322534047    3.09409638469436    4.75679682142709
N        11.38655783357754    5.11723961910930    4.03024989157951
N         6.57348428857414    1.89100026449556    5.04224477155031
N         5.14901445809099    3.36424047097587    4.29007979279320
C        10.38083968677253    4.23937170325407    4.29966001975407
C        12.37228414784201    3.25107955880328    4.76062452470609
C        13.44402823223790    2.43698549565663    5.09872595930556
H        13.31136931543057    1.42875084778909    5.45157132052932
C        14.72131065137480    2.95459533135400    4.96723387889155
H        15.56616968305897    2.33402579875952    5.22639224515544
C        14.94532937232101    4.24852778550482    4.51086543666174
H        15.95788089984813    4.61304710961416    4.42411062216277
C        13.89063409121855    5.07366193573639    4.16441646766663
H        14.05817966151071    6.07782148718862    3.80639288091634
C        12.61085437668593    4.55946939051257    4.29324599458674
C        11.21392139904821    6.45579249515921    3.54996992589217
H        10.14553469832525    6.62964126608474    3.44765190670737
H        11.70282914282358    6.58484319568598    2.58151433817007
H        11.63781547683607    7.17451280694111    4.25559144985384
C         8.83500508489907    2.34203515224778    4.96367794894082
C        10.18219058035221    2.02448831141177    5.15170398497591
C        10.56073328282934    0.79720580523376    5.67550743308214
H        11.59149527338351    0.52780312080986    5.83767585129176
C         9.56916118674510   -0.11665384684462    6.00461838399287
H         9.85556888298001   -1.07583095716435    6.41083719789135
C         8.22112940837438    0.16316723370956    5.82803831155158
H         7.49441325711383   -0.58561269519770    6.09737078709483
C         7.86418686977090    1.39890638096703    5.30897875596975
C         6.48042096501535    3.15253015192417    4.48337952083998
C         5.32689551515520    1.33411006733513    5.20364969022058
C         4.85674890051890    0.13216513204094    5.71360420569346
H         5.51570106235427   -0.62314235870997    6.10593438993942
C         3.48935352532721   -0.08442035070428    5.71362304445747
H         3.10740061040817   -1.01480807705888    6.10674710698556
C         2.59646712239682    0.86144935407515    5.22290494378194
H         1.53756680872911    0.65153564266747    5.24080069633723
C         3.04502358574425    2.06714601197054    4.71472201331848
H         2.35692812067642    2.80671640371947    4.33506321293471
C         4.41243213012224    2.28862313224827    4.71393733781954
C         4.57007167848106    4.53869249387666    3.70911168852762
H         5.38463186775038    5.21498234011071    3.46200874408982
H         3.88966363724661    5.02269406086280    4.41360176890805
H         4.01469157063794    4.28508858484868    2.80278621014957
C         6.77396551683576    4.49897649206748    7.49551973304325
H         5.93924379329167    4.32370449767778    6.80084731709760
C         6.25161602970219    5.37029032505627    8.63790999792826
H         5.49589401344995    4.80242635022201    9.18223441201690
H         5.78556565413720    6.28749688747885    8.29186491323737
H         7.04025811417755    5.62319512023469    9.34036756645836
C         7.18565669244277    3.14386261769190    8.07007487428080
H         7.77014481409740    3.27371868829107    8.97733186983836
H         7.77725704567504    2.57133697558881    7.36212788712816
H         6.30071444193625    2.55987635427954    8.32497070670082
C         9.67974793117989    5.42467446389166    7.31465736128913
H        10.34960168480828    5.81207423474176    6.53284179290049
C         9.70069891399280    6.41182549787152    8.48119973608663
H         9.05659667672430    6.08009270574513    9.29070697368550
H         9.41121777517764    7.41749906624996    8.19335676003374
H        10.71818902645440    6.45980123766673    8.87149842825066
C        10.26075239671853    4.09525501644211    7.79832243815885
H        11.34729674275702    4.16002306717034    7.86407597701907
H        10.00802212404732    3.27988203720500    7.12814758403490
H         9.88418067904919    3.84702848384739    8.78737647531076
C         7.51123536318950    6.99500078913660    6.30723680316413
H         7.45271363181060    7.30015857111206    7.35630492165218
C         8.48424662433811    7.91146534692716    5.57530012092854
H         8.52134361012514    7.62516611697727    4.52811890469142
H         9.48896140560151    7.86101150804148    5.98497137923122
H         8.13947611508367    8.94351937213829    5.63807419221024
C         6.13618718624553    7.14341826023734    5.66692138469895
H         5.78601017049920    8.17066595401126    5.76763194757636
H         5.39990667727706    6.48271266934146    6.11560270143173
H         6.21186621964483    6.90665926541180    4.60987982134708
C         8.03819466821496    4.75875621233058    0.63414840598604
H         8.15570641306828    4.26491142381002   -0.33509047226999
C         6.62034757721464    5.30598310038472    0.74590025187271
H         6.51389360141443    5.82257972743457    1.69543381140171
H         5.86878149059953    4.52376555547441    0.68966814142969
H         6.43413247024898    6.01920079456964   -0.05696493303739
C         9.01330230366258    5.92677554076222    0.72102180900855
H         8.83527752046374    6.62348458803769   -0.09804427549007
H        10.04915648857930    5.60247625946851    0.67846924054023
H         8.85461741462912    6.44943006407009    1.65956587192509
C        10.09982200123907    2.88927147040995    1.29437459883968
H        10.75441565906143    3.65188031223767    1.74142003857105
C        10.51380237381925    1.53448034168035    1.86843017899129
H        10.14392689394099    0.72477765623221    1.24452164489136
H        10.13116855840476    1.39149145256756    2.87443458867221
H        11.60101880992119    1.45762989190331    1.90339200091025
C        10.36400768978678    2.87712269850582   -0.21138355325283
H        11.39313298801552    2.55445586832130   -0.37481577950376
H        10.25097000863814    3.85475243057917   -0.66927810394971
H         9.71497104437068    2.17420031304307   -0.72519586255903
C         7.13804348222561    2.14955634397059    1.38872459348556
H         6.22085003772274    2.56977804720750    1.82715751982750
C         7.37515911935606    0.78732326433753    2.04193072797483
H         6.42974904347694    0.25781895205787    2.16406237496329
H         7.83846221401672    0.88644435645322    3.01839135256053
H         8.02192180502683    0.17045606966774    1.42324160867048
C         6.88710108569354    1.93121757337519   -0.10292707754005
H         7.76150110602793    1.51255737830363   -0.59314249230619
H         6.59510269583316    2.83816340221787   -0.62277807613643
H         6.07477015056623    1.21146136023357   -0.21237277612202

