76
CSD_code = ZOWSAI | q = 0 | S = 0 | Stoichiometry = C32H38AgBrN4 | MND = 2
Ag        7.39711430413405    2.88871796798403    7.64217801584939
Br        8.13136702932770    5.13414449701611    8.13357852679930
N         7.31124937994202   -0.35382852448047    7.92845584982426
N         7.20981919783994    0.37372607175243    5.92334987373749
N         5.21407945386216    2.61872323589900    5.68204213106282
N         2.24988015860251    4.14248865481971    6.84556275117471
C         7.29544993353053    0.78014746474065    7.20394599430636
C         7.22942727688713   -1.45426827516959    7.11551573081393
H         7.23349327111657   -2.45250366346399    7.50251963437812
C         7.15736224423429   -0.99125929479063    5.84474636116593
H         7.08545305281431   -1.51675484442355    4.91467063838386
C         7.03810505013445    1.29144441780169    4.82729354117383
H         7.33545088015758    0.80983634598564    3.89409142223495
H         7.66540495799674    2.17064338005824    5.00955815842743
C         5.59013704537884    1.71989794664042    4.78156392714600
C         4.71220448564594    1.13395263821874    3.87983019253288
H         5.06756229208794    0.41263370130034    3.15975798214575
C         3.37496525560920    1.50043615479573    3.92373670449328
H         2.66325028762103    1.06421427026956    3.23834751748019
C         2.98017142830060    2.43474905145083    4.85751312235592
H         1.95754156573233    2.76394947198586    4.94276442176475
C         3.93285902311389    2.98380667063027    5.72340787760749
C         3.50368489527455    4.01779101114363    6.68476156478798
C         4.55258644182442    4.80283264751363    7.38958033255229
H         4.11309857168692    5.44609985204956    8.14779975910834
H         5.11730042653327    5.40971407205449    6.68330639782154
H         5.26719144928370    4.11702847754949    7.86351290565926
C         1.61301972156260    5.10126573850378    7.60872712380856
C         1.60386067407133    6.45451770310143    7.24103781489360
C         0.83230821375460    7.33915345356392    7.97719897117317
H         0.82372151682310    8.38162723580690    7.69023698117014
C         0.07925822242828    6.93017877703956    9.06787010251227
C         0.09367170909036    5.58533016684705    9.41042945900421
H        -0.48985860388212    5.24316089307240   10.25397864840951
C         0.83526877246208    4.66622139607073    8.69146638215980
C         0.87234427531374    3.21884764393330    9.07917313470945
H         0.85920517781869    2.59514886509020    8.18655266819322
H         0.02665930888059    2.96439896934557    9.71308115926739
H         1.79126645832147    3.00048710370725    9.62467943637318
C         2.38534262863471    6.95189894493507    6.06018166581553
H         3.37321017220731    7.29324255695831    6.37286477913377
H         1.87309197093068    7.79261373906805    5.59688314043888
H         2.51715263661421    6.16850130970799    5.31649097388028
C        -0.71447187125375    7.92456883967077    9.86082934891814
H        -0.05861392922172    8.46935838064019   10.54097346766166
H        -1.48041435997377    7.42848601578668   10.45215169253622
H        -1.19079145657114    8.65022154596021    9.20448041300481
C         7.35926753066240   -0.38863417224707    9.34861875728697
C         6.15520490364768   -0.40553156478482   10.05793859845341
C         6.21598097110340   -0.41851678358715   11.44424538719291
H         5.30473825424105   -0.41852054692974   12.02074287700429
C         7.43378932334107   -0.41921508080341   12.09788719288195
H         7.46326321164219   -0.42485197055221   13.17721790951170
C         8.61277929456194   -0.39999332218231   11.37876839282639
H         9.55451459720504   -0.38568782258688   11.90389215675309
C         8.59888003435354   -0.38657996012656    9.99010045478643
C         9.88809258517376   -0.32212887436293    9.20642090371457
H         9.67305573982956   -0.50819076258714    8.14894075085977
C        10.48652887886166    1.08163090927806    9.32787905158863
H         9.78076404013098    1.83018419104560    8.95658141273888
H        11.40265542614505    1.15339007285694    8.74658849809882
H        10.71257650242255    1.31530342757589   10.36499040573282
C        10.88959668758509   -1.38270147982019    9.66684011100974
H        11.24240951658605   -1.18153766321330   10.67439993090245
H        11.75164525671445   -1.38767037826768    9.00346930680341
H        10.43583950836036   -2.37184945101771    9.65070973750698
C         4.82896519055911   -0.34438987092228    9.33580995495887
H         4.97971265188126   -0.62502588492363    8.28797144585223
C         3.79495625776184   -1.30557063983929    9.92318567171011
H         4.20381651405261   -2.31124492891207    9.99563616153720
H         2.91617951100237   -1.33487727600086    9.28272915913963
H         3.47708661437443   -0.98865485314718   10.91241678575719
C         4.31114675212756    1.09596042973517    9.36622458636566
H         4.11524569924598    1.40853794150521   10.38912887942098
H         3.39452494671828    1.18254414603959    8.78742135775927
H         5.05574300226890    1.77172949037801    8.93926546307345

