62
CSD_code = ZOWVOW | q = 0 | S = 0 | Stoichiometry = C19H38NiO2P2 | MND = 4
Ni        5.80579053318994    0.31527733847715   11.10448656998399
P         5.17088620455085   -1.77487796858160   11.85943508106935
P         7.12079507671978   -1.02032539603079    9.75189082324090
O         3.89035481063300    1.88819309297236    9.54523105566634
O         7.09751403703853    1.88784171781602   13.20991101472143
C         6.74070098888692   -1.33551989524157    7.90840808820233
C         9.00951180708908   -1.21890127425462    9.97953843404749
C         5.75900833571579   -2.50807367259470   13.52051134438834
C         3.48023190042474   -2.57428014162195   11.45787571203810
C         6.36711980800214   -2.51263851673332   10.61132180334748
H         7.12506237908277   -3.10734311823125   11.11588321366261
H         5.85299767916964   -3.14669112427136    9.89271698558207
C         4.58179462777422    1.20148488703865   10.14998908375992
C         6.67304341770000    1.22946383270622   12.37215729143703
C         7.38059015431862   -2.58875288891055    7.31694818548158
H         8.46222629429509   -2.51422640234688    7.26450512613587
H         7.01076671072583   -2.73276890071495    6.30163575130857
H         7.11902346399784   -3.47454327522427    7.89427291391557
C         7.13166110775459   -0.07957378824375    7.12023809358348
H         8.18676395766654   -0.04915045591720    6.87524620369287
H         6.87798837279652    0.81215475949248    7.69513723540252
H         6.57812081532455   -0.04200638835497    6.18275366983809
C         5.22287060277904   -1.46409005533142    7.77319077414893
H         4.73795809314815   -0.60667148677724    8.23815425148447
H         4.84882206956931   -2.38278204882516    8.21812712579507
H         4.94443560391489   -1.47718067993863    6.71979313349722
C         9.77445895403473   -0.50346098638586    8.86457694184114
H         9.75536330774703   -1.05210412735252    7.92812631511121
H        10.81869157181224   -0.39957323510561    9.16023944462932
H         9.37292910475939    0.49571835199520    8.71058667963624
C         9.48571579680235   -2.66893240461338   10.08545511173545
H         9.06233358456563   -3.30021050797834    9.30977370610556
H         9.24378216285925   -3.09924111075326   11.05486710761986
H        10.57043558666857   -2.69479670252464    9.98624817062202
C         9.36062430970919   -0.47470589131284   11.26999645194830
H         9.09953484656335    0.57890411294002   11.17534301793077
H        10.42974209048526   -0.54826436353778   11.46627848301806
H         8.83084470272126   -0.88194799578889   12.12257899038905
C         4.98158259952404   -1.81748007017024   14.64756120817197
H         4.00941350537957   -2.26339270602348   14.82150528653053
H         4.84701107258112   -0.76106289939714   14.41097285859044
H         5.54165442028369   -1.88287923118131   15.57961772511831
C         5.67003680489282   -4.02799700667891   13.62905798930096
H         4.64397990115665   -4.38217288913166   13.63240128361902
H         6.13142520560955   -4.34636627209091   14.56400773952115
H         6.20428324184611   -4.51308532631596   12.81320975815362
C         7.22132810569042   -2.10019056091031   13.70441213804509
H         7.87998416784936   -2.61429347182337   13.00897199157595
H         7.55265309609042   -2.35224993132174   14.71140799334748
H         7.32169545646449   -1.02300729091558   13.57754882207982
C         3.57058532549074   -3.97695327930179   10.85380658453242
H         3.88901783231381   -3.94442356792961    9.81412379624357
H         2.58239196959395   -4.43553076870082   10.87095701839420
H         4.24931334618338   -4.62103427443159   11.40506561306074
C         2.79498727222601   -1.63644946672538   10.46126134590743
H         2.65374019539819   -0.65388847216572   10.91058346749622
H         1.81835997961327   -2.03210061448257   10.18446902191064
H         3.38060811857170   -1.51723148097118    9.55777827917511
C         2.57861473990419   -2.60023667935365   12.69338597264353
H         1.55369252942532   -2.80193749838006   12.38122987793768
H         2.58911944803134   -1.63266293657661   13.19032655262176
H         2.86142679489489   -3.37517659499172   13.39890828997330

