39
CSD_code = ZOWYIT | q = 0 | S = 0 | Stoichiometry = C21H13MnO4 | MND = 8
Mn        5.82782874494965    2.40330132048670    2.95334283075778
C         7.61482150268110    0.64814558844228    1.42291692089452
C         7.60879970094463    1.81322221990359    2.15200810722249
C         7.66075800255079    1.64456949393894    3.55291050599035
C         6.56538114318747    0.78709851517642    3.88372197638756
C         6.55924367800521   -0.38665460010999    3.19209198872864
C         5.70996833808684   -1.58675353297089    3.43843924675829
C         4.19096570834967    1.86573431153680    3.42861895339797
C         5.48345035437486    3.04900101760127    1.32107057729748
C         5.86759339343059    3.95193130773773    3.87804402623857
C         7.73340206420100    0.52571314217707   -0.01336740850035
C         7.99921946022981    1.66052045310264   -0.78568519217683
C         8.08065592275325    1.56240505973117   -2.15900448724098
C         7.92417227144758    0.33344507029392   -2.78214236273591
C         7.67860577093074   -0.79919623690108   -2.02231198608808
C         7.57956444050143   -0.70888197898756   -0.64855669316825
C         8.70962930614605    2.08751331368478    4.45471308835437
C         9.82906878211521    2.75819302261797    3.95393066551102
C        10.84749978091991    3.13598891911406    4.80515332766089
C        10.76295209893684    2.85422452063768    6.16029141346625
C         9.65545561458846    2.19001836045276    6.66523812864984
C         8.63254084049960    1.80664629057529    5.82165445115030
O         7.46321936329074   -0.52374801440239    2.15026686377036
O         3.17112355899473    1.43040255968474    3.71426576098005
O         5.31017764010551    3.36973780313910    0.23624836369556
O         5.98094197005334    4.91098822275291    4.50535740857594
H         4.94645788269504   -1.35342263013149    4.17578271542890
H         6.32397582910612   -2.40823376330050    3.81047692951065
H         5.23699292311634   -1.91493006212353    2.51255851632997
H         8.13344478006625    2.61445204396009   -0.29569652249668
H         8.27566990490540    2.44621029885755   -2.74798045833971
H         7.99701851108050    0.25861678371606   -3.85679044628079
H         7.55827652338893   -1.75810559405701   -2.50496174259530
H         7.38040276709893   -1.58886227662127   -0.05499663925035
H         9.88602410140158    2.97770695489727    2.89664598474216
H        11.71000684427497    3.65470574207783    4.41376678085682
H        11.55946879497757    3.15594643759126    6.82399298387066
H         9.59010797172529    1.97391063711351    7.72124934966170
H         7.76251371389031    1.29483927860570    6.20913607298425

