29
CSD_code = ZOWZUI | q = 0 | S = 0 | Stoichiometry = C13H11AgClN3 | MND = 2
Ag        7.25193146877293    6.32497632746020    5.59465960841142
Cl        7.28832036123084    5.38826571572072    3.55075154333078
N         8.27023076166338    8.01231843008484    7.87136795974522
N         6.44353542689885    7.19720113433014    8.64279517529416
C         9.26682634983509    8.30411365227265    6.92694381905964
C         9.86924457692826    9.55259908745136    6.84553364294713
H         9.59003413580635   10.34777558567672    7.51691601536575
C         5.24344719684310    6.57109576396492    8.81474672032323
H         4.83856688272764    6.08736633621709    7.93698627567369
C         7.06832203262553    7.86197518822546    9.69960049339313
C         7.17627857605166    7.28215469811008    7.51284233626657
C         6.44729530889322    7.87380518335973   10.97146599109071
H         6.93691000035403    8.38672494741377   11.78355643962797
C         5.25724938889631    7.24089359568710   11.13000689859095
H         4.76059344088131    7.23181615787228   12.08685174152064
C         4.64522789925913    6.57982522192547   10.02699933719871
H         3.69888123060707    6.08386567690905   10.16358940638334
C         8.23798898868394    8.38175608268509    9.19516489566192
C         9.31748521930487    9.11047117709723    9.91025633951411
H         9.16506636142815   10.19039157247120    9.87560203943378
H        10.28797196207980    8.88347055127360    9.47328397032643
H         9.32486123428156    8.80913131101953   10.95544286339691
N         9.53961997732122    7.30545756949833    6.08544736287799
C        10.81255192376316    9.75845560129814    5.85127510142968
H        11.30061359386505   10.71665488092905    5.75744290999602
C        10.43901000900715    7.51689910109846    5.13264709013233
H        10.62786503697106    6.67655043178275    4.48042459918421
C        11.10507256730896    8.72107630138626    4.97793268776460
H        11.83299808770107    8.84471271677744    4.19266673604784

