74
CSD_code = ZOXBEV | q = 0 | S = 0 | Stoichiometry = C24H44As2ClNORu | MND = 6
Ru        2.01817825042483    5.76301936397355    3.38991855147244
As        0.65668310712825    3.94855939745654    4.17431750324831
As        3.05131527161444    7.89608965338856    3.07708168885698
Cl        3.69239711606753    5.28988142614292    5.01654090149808
O         3.48022445040954    4.25944621502879    1.25938658539726
N         1.05968968381548    6.79839282585709    4.97238240156207
C         2.90690201829589    4.84280402474997    2.07561773957424
C        -0.74967944702342    5.17556982637380    4.82208424870350
C        -0.09352820308017    6.33710672059300    5.48946839346426
C        -0.68273198552321    6.92111656725595    6.60400037539494
C        -0.08041377083524    8.01032677669528    7.20659799500150
C         1.09302774430481    8.48999485016221    6.65752235276954
C         1.64184229613341    7.86862475335826    5.54038976797272
C         2.91609769748711    8.40134359774176    4.96893031708903
C        -0.37289000418885    2.81897156339353    2.82960645544850
C         0.46399127009405    1.58081350802650    2.51695154988144
C        -1.78245645289289    2.43422041645935    3.26664432789597
C        -0.46821119859936    3.66049309661768    1.56074610914930
C         1.03317371164147    2.83939847073747    5.83375629377250
C         2.32802319624077    2.07439254237457    5.57607777042905
C        -0.09010024742429    1.88154679261304    6.21110732687269
C         1.24971215295513    3.81858962909098    6.98447171418304
C         1.92517920946542    9.33337711853955    2.17951861100578
C         1.70251830477510    8.89060219289868    0.73564118533643
C         2.51236774253408   10.73785554001729    2.23594156476012
C         0.57854965100696    9.33420679686531    2.89831618215328
C         5.00882614359860    8.22718120124602    2.65720113559369
C         5.16204955101049    8.34613018679632    1.14267979899871
C         5.58228154327680    9.44529564995371    3.37100106113278
C         5.75685929725093    6.97889708840272    3.11224267838508
H         0.86942922042935    6.14055625865722    2.43919705305732
H        -1.24630823631182    5.53342810864156    3.91022069353524
H        -1.49730160383835    4.71698526786253    5.47704883365452
H        -1.60819797994114    6.51916715653460    6.98876548331242
H        -0.51666188408567    8.47466643652999    8.07766937684897
H         1.59838027338250    9.34008733131456    7.09091113052300
H         3.75158634241999    7.88482746618095    5.46042039981980
H         3.00827309184240    9.47623769146880    5.16319006381265
H         0.06944008531304    1.06257122671983    1.64229105709749
H         1.49360603034648    1.88518607535217    2.30405784619495
H         0.46608304628838    0.88022658705923    3.35203686883123
H        -1.77772734875635    1.78851659670168    4.14070119014904
H        -2.37414826416823    3.32257429386172    3.48911277788996
H        -2.27979435022425    1.89638625380471    2.45843018494828
H        -0.96316105295691    3.10042480425564    0.76734335628824
H        -1.03652971538976    4.57472341323310    1.73974208744129
H         0.53091211350166    3.94341502495902    1.22261248780570
H         2.21537322402185    1.37656604333103    4.74529793306056
H         3.12612737913015    2.77750836222812    5.33254400411454
H         2.62507176407201    1.51327973583027    6.46265761250849
H         0.12689319143140    1.43031104572359    7.18033715814066
H        -1.04353743385879    2.40706353071454    6.29333275258448
H        -0.18652407533769    1.07506248187297    5.48614303592124
H         2.00341620794527    4.56128947401918    6.71637992751869
H         0.32105784041482    4.32568004668152    7.25572101125084
H         1.61154590450704    3.28652137617428    7.86506076915752
H         0.93567256284438    9.50070485275129    0.25769511427661
H         2.61763097377447    8.97165837090604    0.15144091187601
H         1.37857967760654    7.84579233837055    0.72867572016640
H         1.78953015116740   11.45571070344178    1.84534312721103
H         2.74385882794408   11.02298655206464    3.26398084290540
H         3.41552889309693   10.81744668336247    1.63365059479473
H         0.17496840187173    8.31899408778321    2.92633489961404
H         0.67250424771345    9.71235309116944    3.91856252122535
H        -0.13457982121210    9.96776368267001    2.36955116361027
H         4.62771280348213    7.52185505752302    0.65899029928816
H         4.76733721019491    9.29291395442205    0.77407591991489
H         6.21435825892724    8.28775084803720    0.86230915410442
H         5.06382516052781   10.36040158008668    3.09165058001931
H         5.52028518147785    9.32059013111732    4.45229779388727
H         6.63462852890129    9.56095328082218    3.10897758029828
H         6.81467746779065    7.05141923263341    2.85758701700256
H         5.67352083086251    6.83822293726761    4.19042550595415
H         5.34227877281594    6.09347273311031    2.62218357120546

