112
CSD_code = ZOXBOF | q = 0 | S = 0 | Stoichiometry = C59H47Cl2OsP3 | MND = 7
Os       16.73137668473312    9.23157312441509   14.07983412042636
P        18.79470115298700    9.67790761629854   12.92855110566849
P        14.24648314863002    8.97868873296046   12.26597213344722
P        16.87849512563178    5.40409748215475   16.61325973399419
C        17.26784253318917    7.92138584604581   15.49550201517022
H        17.68519915044284    8.20862116662907   16.46569538471397
C        16.96300331895342    6.58951825770066   15.31786085193861
C        16.32683606736754    6.27574569766510   14.04372502394625
H        16.00821741662940    5.28094610969452   13.76133935634629
C        16.17433265360591    7.38888646764167   13.33763371287383
C        15.87892052160873    8.22666468245904   12.28961078008706
H        16.39683942202211    8.18457604326802   11.33216073538030
C        19.69830540507111   11.21839622873119   13.32075527901468
C        21.07283230973061   11.26013637571319   13.52521553674051
H        21.66449757430222   10.35808793256925   13.46552948003193
C        21.69498334621582   12.46079836950396   13.81877567256947
H        22.76451233615192   12.48221176323067   13.97507062514303
C        20.95557579839204   13.62638364773453   13.91986681030619
H        21.44662519980618   14.56049961373815   14.15233444298904
C        19.58335830874805   13.58703413497231   13.73915774446606
H        18.99670047317175   14.48865861473759   13.83746580328755
C        18.95537050909045   12.39086336934092   13.44847278951330
H        17.87999145568659   12.36469987809008   13.34913075297069
C        20.15108690969647    8.44699342980870   12.97675844477501
C        21.13383765287044    8.37202505259190   11.99227527825743
H        21.11094556518616    9.05448576736240   11.15349567899719
C        22.14027695252112    7.42866349961919   12.08671035125531
H        22.89900925924397    7.37570516263321   11.31887306418001
C        22.18208703190431    6.55561439959876   13.16269663988515
H        22.96986828089150    5.81895637473432   13.22946772938743
C        21.21698964858196    6.63483800253235   14.15238946337460
H        21.25078615132537    5.95947766454975   14.99641955479236
C        20.20866988150877    7.57800437467836   14.05897602970341
H        19.44332832602683    7.65671463724429   14.82096780675432
C        18.57661592644072    9.83248181585138   11.11715407504234
C        18.30303148843950   11.05127509207047   10.50737557942074
H        18.32890818591725   11.96126761711637   11.08779053277412
C        17.99469489879720   11.10503600216234    9.15948036764717
H        17.77937640504446   12.05823868777669    8.69909140505697
C        17.95333747053972    9.94563804853597    8.40427622086652
H        17.71170916250336    9.98930227305043    7.35199203218443
C        18.22047183040786    8.72484612825882    9.00382059310839
H        18.18569076988671    7.81424103745831    8.42117926055442
C        18.51946573303139    8.66674653142981   10.35210147743364
H        18.72053642504075    7.71055007121150   10.82113676067363
C        13.77125312185594    9.24527066532608   13.97794590230266
C        14.83315354093868    9.21887272741189   14.89871578290248
C        14.45938499438791    9.29254720254408   16.24223657519716
H        15.22953273337639    9.28937618361199   17.00261572184168
C        13.13350503156637    9.40340286990643   16.62782738001313
H        12.88815475408854    9.47572163945097   17.67918892952157
C        12.11451524838244    9.42300351303449   15.68582797302366
H        11.08256059107761    9.50859905829154   15.99610396725784
C        12.43300408580764    9.33057271835374   14.34554475296974
H        11.65895586075700    9.31927274099845   13.58696411925571
C        13.16478714096930    7.53795877165519   11.86123725268836
C        12.46727989465345    7.39807720456610   10.66724989445493
H        12.51221134756700    8.17734588379598    9.91900635028182
C        11.70302131087453    6.26762764315984   10.43347285540028
H        11.15921034655856    6.17266232597475    9.50447992534424
C        11.63102490649574    5.26354349338386   11.38375485860868
H        11.03217710750673    4.38400089876853   11.19728683184006
C        12.32717137018036    5.39255070935133   12.57570129123523
H        12.27663363732631    4.61359176672190   13.32397938143188
C        13.08555609492458    6.52162767273904   12.81226518464432
H        13.62585596251528    6.62751599956482   13.74330581624057
C        13.84094071356273   10.07866686813249   10.88727234428023
C        14.50202844599290    9.93163416348223    9.67425808726135
H        15.25203726943474    9.16183116942596    9.55349667354181
C        14.20214695119632   10.78386534149146    8.62751510683562
H        14.72232766557954   10.67842011898444    7.68652958647115
C        13.24177632909907   11.76930813689056    8.78596715829019
H        13.01152624468947   12.43424234734958    7.96653354890889
C        12.58090307153060   11.90916451852060    9.99672275914658
H        11.83642296354611   12.68208446822464   10.12005038499553
C        12.87816454072630   11.06679828813705   11.05093516208202
H        12.38949109918270   11.18145606109139   12.00852804191279
C        15.20490128261667    4.71342580796919   16.61587038476254
C        14.93286075843738    3.35064980780080   16.61259054493840
H        15.74104236174147    2.63550320909106   16.67936846790504
C        13.62099236849223    2.91914226228992   16.51718506674100
H        13.40458305691051    1.86091482484202   16.51503872748841
C        12.58828617498813    3.83784384187300   16.41642810536353
H        11.56822063015363    3.49261466673453   16.33539521613720
C        12.86141154091298    5.19834256355644   16.40773871788622
H        12.06011943937238    5.91614023136178   16.31444036635258
C        14.16686974636408    5.63903337964369   16.50105901371733
H        14.39698429513564    6.69744056358245   16.46877234544469
C        18.06734507754557    4.04315895134141   16.43323165860218
C        18.28541943634778    3.15145397473564   17.48030960406415
H        17.70938295091203    3.24551954530812   18.39180697545102
C        19.23824563672561    2.15928162939163   17.34414627406840
H        19.41097721546747    1.46357583673039   18.15190172756015
C        19.97680396840353    2.06146221167305   16.17409799478120
H        20.72283395371062    1.28727509067526   16.07450130501787
C        19.76833891123895    2.95803981524781   15.13778106607174
H        20.35200419598517    2.88529405466332   14.23218754760198
C        18.81689832676564    3.95401958274744   15.26593796509088
H        18.65169258921894    4.67346483527164   14.47514349870927
C        17.22067985887595    6.17454315663656   18.20170365631508
C        16.22626657037877    6.41499260022613   19.14185349026348
H        15.21245572261521    6.09100896704167   18.95262139091073
C        16.54694840831460    7.07492253020002   20.31443767135908
H        15.77855774980112    7.26672952805157   21.04837971861041
C        17.84674761376255    7.49775229624034   20.54443472068665
H        18.08786516981675    8.02058395268177   21.45751037758248
C        18.83742933321841    7.25740145262022   19.60472103368566
H        19.84709314304961    7.59471725452374   19.78345924406247
C        18.52957922399673    6.59376512867326   18.43280837604786
H        19.29004271732553    6.40222738920965   17.68722402128844
Cl       17.39645646401296   10.81947402730531   15.68065264929824
Cl       15.71512586290643   11.05308903409125   12.71019323900899

