130
CSD_code = ZOXLIJ | q = 0 | S = 0 | Stoichiometry = C61H62ClN3P2Ru | MND = 5
Ru       28.88845915617115   10.60462052487462   10.09638973983779
Cl       29.76026425318076   10.65611370697096   12.35444193418430
P        26.68321673078541   10.44144512480994   10.63930931859564
P        30.97146025960492   10.99173105073084    9.22587077745365
N        28.57684333635117    6.96965137854422    8.30550575484283
N        28.81081243812080    6.43679972812085    9.48955757859950
N        28.98903390848690    7.45799206648673   10.30989642698954
C        25.96812702299995    9.84568068701898   12.22419123987756
C        24.58186208267011    9.75748738851743   12.34104710534811
H        23.95445083713217   10.04609092368210   11.50804429359491
C        24.01321544807945    9.29858631664402   13.51221290187301
H        22.93792293442011    9.23131075896311   13.59836446131339
C        24.81988716914808    8.92480782146208   14.57736882126309
H        24.37131657606217    8.56379181646875   15.49168688188312
C        26.19541728998908    9.02150744102284   14.46846277090344
H        26.82650961461301    8.73977168570233   15.29892295671306
C        26.77175680698964    9.48379336521697   13.29596262898290
H        27.84452966589486    9.58296331006021   13.21603920502592
C        25.79559196706452    9.30856809122471    9.51509354314509
C        25.67840360972023    7.97277049016934    9.89610095983140
H        25.99029095097760    7.67489167224178   10.88903657101831
C        25.17030564372282    7.03117401783819    9.02198009189397
H        25.09130014547062    5.99790916861310    9.32933076195168
C        24.76949160224367    7.41230968867942    7.75114525692355
H        24.36681547976544    6.67856350647875    7.06715808026505
C        24.89240731887347    8.73442845954974    7.35910503057878
H        24.59521805946789    9.03432028057250    6.36458168220292
C        25.41713159977402    9.67513266844294    8.22773754381523
H        25.55299133456454   10.69284982420082    7.89370615413346
C        25.79535179795065   12.03842048128424   10.60784453779906
C        24.61410630196551   12.33135826561655    9.93952519670442
H        24.11867473497977   11.57793325680342    9.34509947855851
C        24.05963820597599   13.59631892611277   10.04191296934563
H        23.14425270829962   13.82142738873302    9.51324147577954
C        24.66369387421971   14.56857657319519   10.82039927168787
H        24.22410984773649   15.55261008902561   10.89408208167924
C        25.82591742759035   14.27284265382014   11.51579515204800
H        26.28669594474985   15.02158167335704   12.14486551412710
C        26.38785426821672   13.01603296818598   11.40724016660018
H        27.28738378805222   12.76713992787934   11.96398759864766
C        32.67611409261486   10.97586609985074    9.89588585584999
C        32.84196501688746   11.43865437680084   11.19894613908417
H        31.97430807577032   11.70998460870045   11.78414927511108
C        34.10566813629703   11.52182758455852   11.75316061304514
H        34.22460570247675   11.87665962676476   12.76644038761129
C        35.21460165122076   11.14659675648463   11.01209306040377
H        36.20275577602372   11.21045686390341   11.44395353227741
C        35.05429807698714   10.68665798270684    9.71567740245587
H        35.91729620080704   10.39319950798833    9.13470748316354
C        33.79179086832693   10.60060815927215    9.15475112554192
H        33.67829241071165   10.24421425590731    8.14016664032918
C        31.23848020318497   10.39936744491782    7.52823519986280
C        31.06852090221527   11.17252468906828    6.38876916937447
H        30.84238217023942   12.22541197728376    6.47676040971316
C        31.17170030266206   10.58758509797736    5.13880137313765
H        31.03494164951679   11.19084816769215    4.25316266372034
C        31.43933204375620    9.23486975289920    5.01821254140330
H        31.51393165778362    8.78411643674053    4.03920237236659
C        31.60668896314795    8.45732929876524    6.15364292576729
H        31.81739720731739    7.40062385852347    6.06184687045380
C        31.50016366462763    9.03575636307126    7.40265245289239
H        31.61990538290591    8.44082786762478    8.30056048770638
C        30.75244349485806   12.79621154013586    9.13666526776239
C        29.60029720107504   13.24608932021305    9.78209652927814
H        28.92380573291396   12.51331477061090   10.27392299813823
C        29.30733690879408   14.59596074856496    9.83098297568408
H        28.41058473406629   14.94338404520602   10.32416037290440
C        30.17422226331157   15.50102943444385    9.23665845768855
H        29.94930643542410   16.55704952127678    9.26840145067673
C        31.33080046405497   15.06099617777682    8.61212396777470
H        32.00522646167926   15.77637831051777    8.16393994968118
C        31.62867362778917   13.71014134985283    8.56453987790948
H        32.53671607350625   13.36059815694690    8.09196646814183
C        28.31149798066575   10.63301775544597    8.12765498788350
C        27.97340752434297   11.75153590373535    7.37147591068402
H        27.92207905420413   12.73033891864834    7.83939781902504
C        27.68362163019047   11.65407348888260    6.01998327188671
H        27.42623380189967   12.54445113440714    5.46113410455355
C        27.72261101653938   10.42680192719367    5.37657741739757
H        27.50657447291490   10.36138035289483    4.31967069409600
C        28.03054640734083    9.28590794002755    6.09184244503294
H        28.05281365202351    8.32921786822480    5.58992440366224
C        28.31168942975499    9.38774166965519    7.44922118944631
C        28.59615009523205    8.31590294479719    8.36323055094736
C        28.87408893542638    8.64882305817631    9.70174221942405
C        28.33054373759315    6.10637235676484    7.18923806739619
H        28.39363204201761    5.07976867363138    7.54564371592107
H        29.07691830285752    6.27330358306361    6.41120689896806
H        27.33528874801373    6.29691020379293    6.78436073760243
C        29.22127392060792    7.24999432744280   11.71890381995948
H        28.25422950689306    7.16143126740923   12.22034543921945
H        29.69789026229076    8.15761328345757   12.10148362358087
C        30.07113688405995    6.03057033684413   11.96540849318582
C        31.46290486457797    6.12989748579303   11.87311762282295
C        32.23713230489060    5.02632951306322   12.20214135209171
H        33.31144725508396    5.10745524509038   12.16101369862904
C        31.66798160400608    3.82595570619479   12.59314985356180
C        30.28646570325105    3.72976596441002   12.61264553326696
H        29.83894476405607    2.78890436943993   12.89363059282903
C        29.47492874777086    4.80662164195228   12.28660831796173
C        32.16273211370258    7.40729569754150   11.45655106335930
H        31.45627415610563    8.08901352975955   10.97175134348050
C        33.27924601585222    7.13711192817661   10.44374026044437
H        32.91780236464817    6.50343361771180    9.63512268235684
H        34.13205628444882    6.64870121872248   10.90807869273243
H        33.62732927416098    8.07860867075173   10.02299037865849
C        32.71896412137718    8.11462997266133   12.69438861908185
H        33.29963859379492    8.98433112966485   12.39691756310321
H        33.35741951812575    7.44359077361685   13.26536192298451
H        31.90789058954382    8.45217965330073   13.33442645399873
C        32.52421820158019    2.64175476770566   12.97116225257244
H        31.86066399340356    1.81835128878943   13.25933399003427
C        33.41605682736358    2.97415176064455   14.16888082471731
H        33.97832141997312    2.09507045498212   14.47697616023975
H        32.81119321719797    3.31122422096385   15.00782175746274
H        34.12210535648997    3.76184091321242   13.91855714552684
C        33.36544438119377    2.17837039666028   11.77988456175951
H        32.72368605424525    1.94103731562887   10.93400363392636
H        33.93615614763430    1.29007655712783   12.04267272195401
H        34.06131906355298    2.95537700899416   11.47359707893380
C        27.96898090164827    4.64186237609983   12.30505920277768
H        27.53340247524734    5.36302175127400   11.60826703061186
C        27.43202652630616    4.91362619601464   13.71418121301332
H        27.71006936864272    5.90863826916557   14.05501584336418
H        27.84283892059378    4.19011571554018   14.41514159900232
H        26.34663181524348    4.83431826129681   13.73022284396644
C        27.51676678315325    3.26079753538644   11.82669614102530
H        28.01045752351401    3.00397198574068   10.89248790168745
H        26.44124777598807    3.26673039299200   11.65977590218627
H        27.73206187445880    2.48953439667816   12.56160022561571

