63
CSD_code = ZOXQUA | q = 0 | S = 0 | Stoichiometry = C34H22Br2N4Pd | MND = 4
Pd        0.48074549723232    4.41485155045444    1.60204181600204
N         0.62326576418046    4.38616244750054   -0.41982714933375
N         1.75481231998101    5.99523743900270    1.67021719656567
N         0.35455821122466    4.42856870179732    3.62459271962554
N        -0.80532880655153    2.85481964334054    1.53357102178431
C         0.02533188801603    3.49371880236923   -1.26305517192907
C         0.45465645288680    3.73927161072325   -2.61109472264225
H         0.15793319512362    3.16562051228043   -3.46626842224163
C         1.29169302740555    4.80108550156503   -2.57260807564222
H         1.80214880020009    5.26515311129460   -3.39320322441062
C         1.39129956263357    5.20333987567613   -1.19896099491292
C         2.14792218843648    6.27068742281550   -0.72536054850268
C         2.30820208577232    6.64747113604853    0.60357306865249
C         3.10565489517553    7.74630356085161    1.06531011842498
H         3.64712786258474    8.42808888154175    0.44019894623761
C         3.03853083388026    7.74225076778930    2.41638833727040
H         3.51453660856445    8.42063050420133    3.09609731698297
C         2.19574054643313    6.64382700516541    2.79012861286261
C         1.88558406994572    6.27345969619654    4.09417512085651
C         1.04566861814872    5.23475181877098    4.48338916062227
C         0.75141332618910    4.86778980869968    5.83887211696863
H         1.16929666096997    5.33019817879970    6.71114530798428
C        -0.13142684012960    3.84431776835622    5.78562996949486
H        -0.56448161113187    3.30494546592086    6.60421551555992
C        -0.38604055378111    3.58081147664395    4.39732331088542
C        -1.26143336562137    2.59571050646345    3.93993175677470
C        -1.45380423512792    2.28930406829190    2.59210655505979
C        -2.38872540413033    1.30668653884869    2.11810702827764
H        -3.04984496569241    0.73743624460504    2.74093985778507
C        -2.27436006891159    1.27199245227995    0.77095566000593
H        -2.82314681461128    0.66890454174327    0.07503484469985
C        -1.27341941417993    2.23771608976783    0.41113178145358
C        -0.87762284456742    2.49385297059948   -0.90245953415010
Br        3.06605948262573    7.31346370399623   -2.02689440016673
Br        2.68610187307204    7.29520882748439    5.48684059025147
C        -2.03195003392201    1.83349933869155    4.94364401473766
C        -2.94269549955077    2.48018408978655    5.77387997342672
H        -3.08737136644155    3.54610120654954    5.67367616739689
C        -3.67206594577461    1.76569065402384    6.70428235248353
H        -4.38159860044526    2.28117621205620    7.33560984800182
C        -3.50782361911056    0.39182386360327    6.83958920832619
C        -2.59218075536922   -0.24866912288754    6.01388010644786
H        -2.44681477507852   -1.31554149666877    6.10622392291675
C        -1.86594731001226    0.45855785702794    5.07441027095187
H        -1.15329295354140   -0.05207525057202    4.44311590839978
C        -4.28494576651593   -0.37157312560499    7.86716829862208
H        -4.35623894899758   -1.42305448260816    7.59980607629467
H        -5.28789234563958    0.03553017379615    7.97518972621129
H        -3.78927065804271   -0.30140528811428    8.83603623752299
C        -1.45677891557827    1.65943328515011   -1.97523312583137
C        -1.21650480257418    0.29002653465945   -2.01071199966057
H        -0.59347886893185   -0.15875811449969   -1.25071718467125
C        -1.75180220747144   -0.49001055712945   -3.01882034525215
H        -1.54714112964308   -1.55098184534003   -3.03561577887926
C        -2.54701201063449    0.07103721817269   -4.00953845441400
C        -2.79068868086475    1.43970923054477   -3.96624398116225
H        -3.41052217555805    1.89263436937788   -4.72681093533665
C        -2.25113667897737    2.22642864405097   -2.96770314445394
H        -2.45421872748356    3.28723270684704   -2.94305593792484
C        -3.14565871902944   -0.77041172650531   -5.09414919936409
H        -2.69491513208659   -1.75933674328403   -5.11475670544332
H        -3.00733271439831   -0.29973409630880   -6.06573855262357
H        -4.21736950457492   -0.88505216670268   -4.93030225388684

