47
CSD_code = ZOXRAF | q = 0 | S = 0 | Stoichiometry = C19H17BCl2N6OW | MND = 7
W         0.20609921686412   10.81949031232740    3.41188630338803
C        -0.66751405226757   11.54723924028902    5.16925330225125
C        -0.81016378373600   12.20356769846761    7.54128472857488
C        -0.80183634014021   13.17664354431506    8.52012091117704
C        -0.69211201585671   14.52318800060764    8.19280524844645
C        -0.58625664176368   14.87327487755710    6.85019651195933
C        -0.57504346194856   13.90951046203795    5.86392135347982
C        -0.69151323125422   12.55615076779373    6.19430898523289
C        -0.66954785789052   15.57827389951202    9.25572089735142
N         1.57033155577815   12.42927125660555    3.72371770432532
N         1.82707250360970   13.37131216154564    2.80982489904055
C         2.68807094569780   14.27086913578120    3.31345175080348
C         2.99732275141567   13.89372225828176    4.60185214985921
C         2.26734946416871   12.72309243636418    4.80959337493394
N        -0.89370573065007   12.24979491524271    2.22762279581292
N        -0.29886758646560   13.24010941912203    1.55066575906463
C        -1.22171403586997   14.10696102053755    1.10881785448978
C        -2.46204902713144   13.66753383278330    1.52467975756402
C        -2.20440766917816   12.49107867922106    2.22454111140164
N         1.30944544151779   10.78523804466467    1.55440944881500
N         1.64202407393447   11.88689431230524    0.87034028444637
C         2.38062211371131   11.55365702537686   -0.19293895986687
C         2.53635796215140   10.18040382773530   -0.20032523572709
C         1.84232064348155    9.74139698106020    0.92264458677899
B         1.23027372903516   13.27062547668138    1.40486462313062
Cl        1.95474833928384    9.47425222728267    4.31393456953747
C        -0.82677789473241    9.25497121486097    2.81765682243416
O        -1.50536553195103    8.36018503805149    2.56724646095957
C        -1.26542730475044   10.41961936760820    4.84166212487163
Cl       -2.53440290391285    9.46892615064006    5.44816559509655
H        -0.89400074526447   11.15999809494562    7.80691065129343
H        -0.88802134579540   12.88693135955006    9.55778325101162
H        -0.50577514996371   15.91666642546127    6.57902199376622
H        -0.49987169244709   14.19715988208716    4.82342003894991
H        -1.04733120047871   15.18990386870260   10.19815965035412
H        -1.27093314574317   16.43598875424070    8.96073525830348
H         0.35159730517532   15.92628878745342    9.41530620210620
H         3.02168146056666   15.10617661895594    2.73184117003957
H         3.65206678598478   14.38586819547747    5.29028804902319
H         2.22450961939894   12.09916728966536    5.68309482218964
H        -0.94677669444669   14.96481121036260    0.53003223241337
H        -3.41201385965258   14.12637171926086    1.34644677960457
H        -2.89115245740592   11.81888866510811    2.70746031596001
H         2.74752877957651   12.29722812059543   -0.87096941378589
H         3.07412615821301    9.58719837127860   -0.90998467152446
H         1.71696027252048    8.74213319015158    1.30019023561658
H         1.58917223861712   14.14596586205048    0.69983771504080

