61
CSD_code = ZOYJOO | q = 1 | S = 0 | Stoichiometry = C28H25N4O2RuS(1+) | MND = 6
Ru       -4.21893426677469   -1.79811323956703   -3.64458747801836
N        -3.59677563089898   -3.44406923948335   -2.69281762786280
N        -4.17067499539746   -1.10615752653510   -1.75620505847914
N        -4.29468484792724   -2.63553347881404   -5.42652735292841
N        -2.45390035061988   -1.20162981617800   -4.36667852118148
C        -4.63228523140242   -1.85954073232990    0.46826394719317
H        -4.73095482998972   -2.67197732100134    1.16839029748264
C        -2.20790022488004   -1.56106665480243   -5.64851126615738
C        -4.73965134024261    0.46286705804952   -0.05324485916888
H        -4.90875437047325    1.49119420804344    0.21948438591505
C        -1.60684973640454   -0.37346826455314   -3.75996668783237
H        -1.84362700741149   -0.11198721790419   -2.73682510647238
C        -4.25997563443536   -2.10757066785903   -0.85208890493139
C        -4.89389954916615   -0.56260309469835    0.86922931208039
H        -5.20268119934330   -0.35347979209932    1.88079349987073
C        -3.16053174880845   -4.58022870584954   -3.23680573097222
H        -2.90759588961564   -4.54966802263961   -4.29063562081330
C        -3.78060351630562   -4.57426755150417   -0.59262136025591
H        -4.02830499146450   -4.54544709030326    0.45521575678050
C        -3.89259445959634   -3.42404057724192   -1.37346590288558
C        -3.35228052049854   -5.75414318227742   -1.17034465016571
H        -3.27004441478199   -6.65475254660582   -0.58338827500915
C        -3.02095299913190   -5.75262203387631   -2.51964952193736
H        -2.66716209357880   -6.64589948957063   -3.00762871305131
C        -1.08966900299938   -1.08796794610119   -6.33207425259400
H        -0.91342092396540   -1.38050398993146   -7.35400761594605
C        -4.38029881178847    0.14423815621585   -1.35065493938209
H        -4.26178720103221    0.92232824104227   -2.09484464424941
C        -0.48378216505728    0.13933477234919   -4.38073801209845
H         0.16657443369493    0.81336791294742   -3.84815922021747
C        -0.21636341200399   -0.22704242359627   -5.69364389761492
H         0.65030971259223    0.15527741242676   -6.20840778787199
S        -5.33250999813228    0.06292049240925   -4.37777481777342
C        -3.22671981217017   -2.43367521466714   -6.23108025028840
C        -5.29536250911936   -3.40477819354052   -5.84967394116848
H        -6.11155713168154   -3.53477045538334   -5.14791826025952
O        -6.16178235245554   -2.34890741636893   -3.06662256409099
O        -4.66556300434052    1.34900989118759   -4.20773671377771
C        -8.11107223284553   -1.53787867870035   -2.00074477716311
H        -8.30951077639806   -2.52356562868256   -1.60901644080787
C        -6.96722907425149   -1.35953509625957   -2.80465890855491
C        -6.75454481432620   -0.06264645405457   -3.31418820488257
C        -8.69205572657829    0.79635969243281   -2.22097628757262
H        -9.34986497658602    1.61573121541292   -1.98143085904308
C        -8.94413047668136   -0.47789994120689   -1.72212239242009
H        -9.80892374453534   -0.64054472423752   -1.09664692371451
C        -7.59338720803566    0.99959220305198   -3.03183440003252
H        -7.36143383049556    1.97337154610900   -3.43706382060396
C        -5.19293218501587    0.48807590215034   -7.09034873652106
H        -5.70614457032732    0.69161589374271   -8.02722748657810
H        -4.48764169303918   -0.32601693604863   -7.25090918920780
H        -4.63703198161655    1.37703391445691   -6.79728782984417
C        -6.18690604752939    0.14284908993999   -6.00247247351872
H        -6.66168806660489   -0.82684521437037   -6.14685015745697
H        -6.94488759788488    0.91645183083403   -5.89534068009984
C        -5.29614827162147   -4.00606425791387   -7.09399162445411
H        -6.12843001237495   -4.61889707314745   -7.39854013051887
C        -4.20628957372495   -3.80805530445740   -7.93426437515620
H        -4.17324040557682   -4.26559093952863   -8.90993770971479
C        -3.15983790847573   -3.01668818285752   -7.49619683150538
H        -2.30031679786528   -2.85567911605078   -8.12549740450537

