73
CSD_code = ZOYRIQ | q = 0 | S = 0 | Stoichiometry = C26H40ClNO2P2Pd | MND = 4
Pd        1.28516923006360    4.68625728821497    4.29126831531801
Cl        2.88891381570836    3.09046764156956    4.18425507859205
P         1.94673114481949    5.55787313904450    6.24892255044609
P         0.28792194733904    4.15507209906375    2.35518230993927
O        -1.07787769505349    8.28408072273103    9.42987035817562
O        -2.71646150127371    7.54801658487372   -0.34432718808348
N        -0.15419081548278    6.11942784278707    4.38648767821352
C         2.17367401829035    4.46023161378825    7.72077868518190
H         2.05013088116121    5.04069799431336    8.64259498758052
C         1.04241559386854    3.43768949679936    7.59333334148724
H         1.15143684336975    2.89313805458406    6.64686681373729
H         0.07172058005403    3.93887183228941    7.60074145608664
H         1.06924058824396    2.71763656637197    8.40915440496189
C         3.53990732907881    3.78479053911891    7.69549949182344
H         3.58960747551879    3.01148440154160    8.46045189743484
H         4.33804177457877    4.50054404136833    7.88295913420334
H         3.70699403164407    3.31792737658533    6.72506758905964
C        -0.94932074745174    7.75415740956734    8.17027900134327
C        -2.04404921202212    7.13954684869874    0.78000085529890
C        -1.68848976071865    7.23586418412715    5.93590415041491
H        -2.48874048509559    7.22537824979854    5.21116744069970
C        -0.75016857768187    5.61591194863745    2.11934020648435
C        -2.28916787135591    8.91142460624777    9.76254560921074
H        -2.49660540937061    9.76364857438632    9.10616121741825
H        -2.16669039206532    9.26752314433943   10.78444229277024
H        -3.13115280511730    8.21160909696299    9.72367467951737
C        -0.45217066691253    6.65763175228972    5.60699140573154
C         0.49998951582650    6.56640603199765    6.65154352032353
C        -1.38625728460338    7.74400879656433    3.02470298514594
H        -1.33039212461626    8.49310006475777    3.79991973927148
C        -1.38357561213403    5.93132581290233    0.92127087445230
H        -1.33770771506781    5.22600905120892    0.10590269983727
C        -0.82735729496854    2.67701346512580    2.50360680387988
H        -0.17679967377621    1.79567360903338    2.43399449481429
C        -2.00452260767413    8.05223584791828    1.83832927777765
H        -2.46362946964281    9.01791441352204    1.69442462939895
C        -1.39950333761725    2.75554747158128    3.92187145232443
H        -2.03998587970010    3.63402223856182    4.02210197362953
H        -0.57788015052844    2.83522463905992    4.65507137780420
H        -1.98732306319205    1.86947555691581    4.15630459626899
C        -1.92972775310882    7.77611960398520    7.18280700736263
H        -2.90189805500907    8.20196587263989    7.37753705914175
C        -0.77564636083491    6.49047411965185    3.22843590524922
C         3.40296412606051    6.69508142022528    6.07177735878543
H         4.28928116529300    6.04867904817455    6.02714886444661
C         3.54688614922158    7.70269701036718    7.20403869275985
H         4.42363196868317    8.32757119574175    7.03944203740925
H         3.66319705959916    7.19875588262555    8.16174958901784
H         2.67091402004046    8.34668183618586    7.25431681979040
C         1.97688940184627    2.67587614798740    0.69894298660679
H         2.70283765162449    2.68451044672414   -0.11264002596483
H         1.25616855740988    1.88436204455550    0.50232744325706
H         2.50242471509089    2.45072600510654    1.62660719501462
C        -1.91754836468000    2.60677502840800    1.44279989462132
H        -2.52208444320611    1.71208688856347    1.58538188053834
H        -1.48714769728819    2.57004553692420    0.44341056238777
H        -2.57005218005426    3.47540788712175    1.51201059502679
C         3.21723847371572    7.36938089962916    4.70945118344091
H         2.33632018329727    8.01385066179018    4.72449123428386
H         3.07849848981074    6.60379748776320    3.92586860521924
H         4.08474980337893    7.97460762619337    4.45120723867482
C         1.29300006732364    4.03391965288266    0.80501869132227
H         0.65873789427834    4.20984132829356   -0.07217473784046
C         0.25520494603597    7.11446378959061    7.89819710901183
H         0.98520675372733    7.04863018110993    8.69026876517839
C         2.31489200653845    5.16441999715768    0.94391980469201
H         2.91768180927856    4.99715231878450    1.84549715479976
H         1.80936809063936    6.12888760570184    1.03403281413641
H         2.98310382312698    5.19920107206387    0.08528981746500
C        -2.75749246286570    6.67520770338332   -1.44227479036105
H        -1.75490049959006    6.47308164183299   -1.83607187689711
H        -3.34402568056728    7.18532702667757   -2.20490169947025
H        -3.24454827530004    5.72685498290621   -1.18827136708825

