65
CSD_code = ZOYROW | q = 0 | S = 0 | Stoichiometry = C24H34ClF2NNiP2 | MND = 4
Ni        2.50496480874322    2.55294542396207   12.91535583557334
P         3.90951955965252    3.17924458588406   11.41856508800721
Cl        1.80149764204231    4.48321244402527   13.13808830971606
P         1.12519520706250    1.63750303010495   14.30687929822414
N         3.22982776020918    0.79219685351087   12.69237798800857
F         6.24240538601060   -0.19451381710780    8.19187930490373
F         2.56261285748708   -2.60452589328672   16.98010338951923
C         4.08716865638953   -0.80493459510419   11.03930074563903
H         3.59365558580108   -1.63539139110431   11.52041119922785
C         5.25688186016246    1.33950865942490    9.68953512395917
H         5.72375606707983    2.14935706084479    9.15221391153725
C         4.45444302052090    1.56681365715861   10.79461343169756
C         3.10113764797987   -0.09549162507899   13.72774958449304
C         5.46677676935670    4.09712235626062   11.81953344470203
H         6.14849910912686    4.00935512559798   10.96461205674439
C         1.87454175494627   -0.71482863319023   15.74551268590899
H         1.08550689169118   -0.55075284878874   16.46281851788942
C         3.94220107417618    4.33487460484850    8.78683222083222
H         4.13674129703946    3.41186610239939    8.24646522226574
H         4.88973811751305    4.80016557405706    9.05005041110255
H         3.41227686572120    5.00833939742456    8.11431770880974
C         1.83071877883517    3.26855407472683    9.66386009822296
H         1.21851021958959    3.80158718656128    8.93936162534013
H         1.23139802760151    3.10531797930836   10.56608550783954
H         2.10199320779699    2.29888836001567    9.24632964324844
C         5.45999344840074    0.03788369214959    9.27534416043385
C         3.99372063215236   -1.15032272706288   13.98492967421359
H         4.85927915145677   -1.28677311446796   13.35523854566534
C         3.81144402008598   -1.98446903745506   15.06696871568881
H         4.50187357342799   -2.78919996303777   15.26577007890381
C         3.08145705860120    4.07191107196260   10.01534250562163
H         2.76815610980568    5.02770424633029   10.45555009496197
C         0.78433793022194    2.36806696913466   15.97517620463960
H         0.39305890030187    1.57724007271279   16.62573194620599
C         5.17197073920241    5.56187576220294   12.12261069356535
H         4.83416772731350    6.09089575114013   11.23416081668707
H         6.06900446802590    6.05532894167600   12.49340714001738
H         4.39594392028527    5.63853013689536   12.88297616270724
C         3.91804810083807    0.49546083320269   11.54782404591766
C         2.74200094007629   -1.77532012424891   15.92158431645257
C         6.06977132834493    3.38813549222778   13.03088897568040
H         6.98568725430181    3.87935245822839   13.35402646204754
H         6.29721212465666    2.34863256605578   12.79542265308683
H         5.35712111335348    3.40411424200971   13.85895840882137
C         2.05824757404477    0.12142918566531   14.65822707637118
C        -0.22388692730254    3.50853470219779   15.88150599227336
H         0.11980845626516    4.25622316159525   15.16929094934814
H        -0.33382637049876    3.98531352546844   16.85411736059488
H        -1.20159541087032    3.14917497322917   15.56720917390208
C         4.84915316406659   -1.02994711553816    9.91402227344140
H         4.97879333230810   -2.02748845157580    9.52424933329684
C         2.12526768136792    2.85757929230270   16.51781842820715
H         2.82966192920094    2.03081049138850   16.61066571702762
H         2.00125332777355    3.31920233635902   17.49540834954122
H         2.54796678106675    3.59971063763706   15.83814712869917
C        -0.51159872559947    1.05994255663678   13.63476498656233
H        -1.09526607310737    1.97066480410564   13.45030793607471
C        -0.23019603395764    0.37547046827866   12.29853192506696
H         0.37879690084619    1.02205626837306   11.66173444616495
H        -1.15752213487711    0.14978278237786   11.77529597415293
H         0.31348074323959   -0.55515548384733   12.45661430151443
C        -1.27456192138372    0.13911260129795   14.57790741392990
H        -2.21859797641134   -0.15247880646574   14.11966327888499
H        -1.49679830880644    0.62842009615783   15.52329626441513
H        -0.70189672073584   -0.76491896783189   14.77465773586809

