73
CSD_code = ZOYSUD | q = 0 | S = 0 | Stoichiometry = C30H38ClN2PPd | MND = 4
Pd        3.29740260537828    2.22744336155688    0.38016355642248
Cl        4.48366330213786    0.96968096578183    1.85641114296228
P         4.38018641626001    1.44747950555738   -1.39040812839861
N         2.36529628379433    3.43105974934930   -0.96396800181164
N         2.17891629308068    3.04794902407538    1.86402046191169
C         6.01974116580726    2.29301579007968   -1.61572339917476
H         6.71864722701752    1.76944912801495   -0.95136130334872
C         5.83773110934874    3.72293557212023   -1.10087720545859
H         6.78866663785208    4.25356755461519   -1.08820305488041
H         5.43469167059118    3.70552425060972   -0.07263549010184
H         5.14513485577483    4.27369227075278   -1.73981944432854
C         6.53040237510183    2.25450608908546   -3.05036529183843
H         5.83884024467749    2.77017137167667   -3.71476893391778
H         6.64360683093459    1.22875568797919   -3.39631132478154
H         7.50047379789432    2.74502232329820   -3.11698539727646
C         3.29051110376662    2.04513373678589   -2.70878210596029
C         2.36061512124277    3.01498340251807   -2.27699721835494
C         1.41073224351141    3.45813213854759   -3.20826037550556
H         0.64981682517432    4.15743274108693   -2.89224886691747
C         1.41872649331471    2.99027324265771   -4.50500255766251
H         0.66659261028907    3.34518351600303   -5.19550442940277
C         2.36510438181578    2.06819310226208   -4.94118036191565
C         2.38755636402323    1.57880709210139   -6.35831834069824
H         3.28559772624553    1.92986641181362   -6.86739389237950
H         1.52035626012591    1.93877352250796   -6.90584024513819
H         2.39218047585464    0.49013507484194   -6.38912672136097
C         3.29091266665286    1.59741499341199   -4.02023432369439
H         4.01926297780703    0.86372669527601   -4.33690821939479
C         2.11948222205075    4.71859616847629   -0.63399609711372
C         2.26175693987229    5.76580092730502   -1.57760617524245
H         2.64325157829986    5.52209293418656   -2.55904548773287
C         1.96941632827118    7.06747044567371   -1.27640911041684
H         2.11336945703386    7.83211429582528   -2.02702256398477
C         1.49097393868955    7.43345463559293   -0.01089171430455
C         1.13525343822589    8.85935846810886    0.28090540834979
H         0.25218490362663    9.15312111138874   -0.28774292208021
H         1.95020329701088    9.52355731527066   -0.00445315159942
H         0.92489256733301    8.99900468938914    1.33851646758216
C         1.37538309339098    6.44364511770959    0.93431938025982
H         1.04075299297217    6.69812930281546    1.93134746682515
C         1.71165907299955    5.10346564408838    0.67862715444717
C         1.59677241679806    4.18815093085694    1.77071529813714
H         0.96016583048976    4.51518319361313    2.59897308852003
C         1.94436011999158    2.23126258374494    2.98828562886564
C         1.17256075394581    1.07529629860590    2.82492649865555
C         0.94999575312390    0.26413996139009    3.92436891532478
H         0.35715414742512   -0.63185876779317    3.80529197194609
C         1.48322901308352    0.56923709451282    5.16933225801117
C         1.21049125748405   -0.31150064337640    6.35124733499301
H         0.27381756172568   -0.01851758187071    6.82772097794717
H         2.00530847130643   -0.22756686029889    7.08830852293652
H         1.12138765276244   -1.35141636940231    6.04575553984597
C         2.26804409890049    1.70566096323447    5.29837494596931
H         2.71405610322910    1.93756221745984    6.25523640263534
C         2.51187075758406    2.54697862068496    4.22451662033363
C         3.41865759408198    3.73500195771789    4.35371332576452
H         3.99311771956604    3.67501418813937    5.27438633234609
H         2.85596462196734    4.66910784467526    4.35976569456690
H         4.11049693776526    3.76343072809992    3.50928905652353
C         0.62234330854820    0.73522316121634    1.46950428271819
H         0.14465281855743   -0.24143765374804    1.48347828109383
H         1.44193165341080    0.72065144456960    0.71907297777103
H        -0.11105058507604    1.47978628318287    1.15032352954772
C         4.59861730521047   -0.36365284860346   -1.70190226318500
H         4.74437519754908   -0.53662298344476   -2.77497230242640
C         5.77725393986780   -0.91923886949548   -0.91113561303455
H         5.69761085123662   -0.61208988009676    0.13140508103433
H         6.72611585951699   -0.56947741061057   -1.31277658039737
H         5.77206635180629   -2.00721382307888   -0.95117525401105
C         3.28317518106483   -0.99471125351045   -1.24527392262693
H         3.27933454625281   -2.06772534996802   -1.42764607346872
H         2.43827358814203   -0.54742331320626   -1.77411986543315
H         3.16260327742045   -0.82415323342621   -0.17140987352186

