74
CSD_code = ZOYTOY | q = 0 | S = 0 | Stoichiometry = C27H28F12NO3P2Rh | MND = 4
Rh        2.40533520313063   -0.58306818867517    3.51682070720197
P         1.20262359168379    1.24289364157398    4.05228910749969
P         3.63326992707135   -2.43652473607711    3.78581309824698
C         1.25751137929646    1.17388352897494    5.85820249631418
C         0.43495109689667    1.87575582220091    6.72793053902491
H        -0.29485541649026    2.57013093403159    6.33512417959778
C         0.52286272047443    1.68691500722124    8.09743306911636
C         1.43803082546303    0.74790895901323    8.57173279009638
H         1.48869879946496    0.55533338080192    9.63403660329810
C         2.26623452165246    0.04779502738604    7.72362361162877
H         2.93151666003174   -0.70281997667817    8.12332742475899
C         2.21926346628024    0.26092216300613    6.33729099276784
C        -0.35945850399258    2.43638839696105    9.04991913523495
H         0.24119998876452    2.98999223050899    9.77081893219042
H        -0.99178711043872    1.74545011431649    9.60685186851106
H        -0.99823185758560    3.13830479271349    8.51936715862294
C         4.24016412248716   -0.88976629310017    5.79315305519538
C         5.06507714273500   -0.31977073063725    6.77280172292432
H         4.73410348250458    0.55605464055270    7.31125086492751
C         6.31877729293960   -0.83940519145525    7.02156688351787
H         6.93502357499468   -0.36724833011475    7.77410168129330
C         6.82445693655884   -1.93609720718758    6.32679951557685
C         6.03515663175221   -2.49722229973780    5.33280267058007
H         6.39694553593249   -3.33020575240770    4.74725508137180
C         4.77755016986329   -1.98269788264707    5.08024399456530
C         8.18304433711727   -2.49205727896519    6.62609058989918
H         8.09521891912003   -3.40361548647563    7.21810538958710
H         8.77943782819642   -1.77743278332319    7.18795578518039
H         8.70535730891228   -2.74103139117641    5.70464224545684
C        -0.60207628711032    1.35239589797505    3.64402588871778
H        -1.06649521231961    2.11950059846920    4.27315958005894
C        -0.81684181045463    1.69453331772505    2.17488348791038
H        -0.48998642162797    2.70791376228983    1.95249302270923
H        -1.87276996306960    1.61535398775617    1.92205865048919
H        -0.26273971159444    1.00420417836650    1.54094906754038
C        -1.19141713419843   -0.01390622190630    3.98888736502973
H        -0.70778182113574   -0.78637060441073    3.38413620462833
H        -2.26055115095704   -0.04016106089429    3.78852285269121
H        -1.02988909438224   -0.24450658302450    5.04193361542680
C         1.98194669051321    2.85962806257807    3.56932951828921
H         1.82397052792720    2.96333767815608    2.48863153939352
C         1.40668863458968    4.06865685917194    4.29499318410718
H         0.34252906888759    4.17994207082661    4.09626227770005
H         1.90985673321898    4.97494869206476    3.96144280859176
H         1.55490808472202    3.97255901112419    5.36868200194332
C         3.47827481785416    2.69412566207077    3.83353558159581
H         3.66497810299630    2.61401861652065    4.90396644965121
H         4.03808177170896    3.54436379674087    3.44848357048499
H         3.84885103683943    1.78122063765874    3.34958609382866
C         1.93197295099254   -0.70693905753167    1.74876258646309
C         4.87472607692394   -2.79288773814093    1.49005945683524
H         3.98845934707244   -2.47865058839780    0.91479909000395
C         5.78288163683392   -1.55896040120368    1.65037995112425
C         5.58379922777350   -3.91329185663722    0.70505141375193
C         1.46862247314168   -3.74321474598483    4.34137510087415
H         1.04686215557808   -2.70818802641650    4.32091124904083
C         1.09424053131004   -4.39800944233752    3.00173920596424
C         0.88147186936135   -4.48229123928306    5.55223231022938
F         5.11901952043603   -0.57680963086755    2.28951698983414
F         6.16361687648618   -1.05791771337205    0.47754875069495
F         6.87429305842885   -1.81098153001488    2.36082439357621
F         5.90386865137322   -3.52388924770381   -0.53167910871673
F         6.70310620911825   -4.31567784742333    1.29874005893244
F         4.78577174057274   -4.97033414939702    0.58930803368516
F         1.75900938402773   -3.76218887748898    2.02017534796653
F         1.40642881522698   -5.68259000557816    2.92502072551943
F        -0.20538429864350   -4.27385896403639    2.72913533530903
F         1.34513475364814   -5.71941128600324    5.68204157072352
F        -0.45198455592879   -4.55862336881752    5.47612484662395
F         1.17114007803992   -3.82271969221830    6.67358720294061
N         2.99720286626398   -0.42447021760983    5.43111402428059
O         1.72505701458221   -0.80316721330455    0.61944011646059
O         4.54421069937697   -3.32177929700082    2.72870374444540
O         2.85135748066798   -3.70747133319453    4.47927364837602

