65
CSD_code = ZOYWER | q = 0 | S = 0 | Stoichiometry = C31H27CrNO5 | MND = 6
Cr        5.17969371497417   13.33730988618988    9.27235271295447
O         2.25575433587036   13.03323492167081    8.63137182870313
O         4.40095781033612   15.72199811805529   10.95358813860646
O         5.27195947780081   15.22665030634922    6.91886208016439
O         5.62661231654305   10.94291801901036    7.49100475868981
O         4.64263777876206   11.35467014129368   11.48246207387295
N         8.15265245246319   13.55253824482759   10.14068653410587
C         3.37354449275658   13.15293627027838    8.87281469189507
C         4.74439592109372   14.81268686585837   10.34272372529990
C         5.31198147990740   14.51092893195867    7.81472800211227
C         5.52273630554677   11.86168168224725    8.17051748847938
C         4.90209599221956   12.12982583865172   10.67593171143336
C         7.05352842094043   13.49607033156850    9.74758994716991
C         9.39795513543786   13.45601175835281   10.66681564706026
C        10.00051720997348   12.19396261483210   10.72487852886064
C        11.27013658804468   12.09687029476423   11.26657628802498
H        11.74426057358425   11.12726208968110   11.32164181189158
C        11.93516964275394   13.22084852419569   11.74719166268607
C        13.29751610173994   13.09248351657596   12.35575995120494
H        13.88336295838741   13.99362164050531   12.19019396700388
H        13.83090422908242   12.24092302559234   11.94021324448193
H        13.21055161503777   12.94241720050731   13.43256336122040
C        11.31023146057370   14.46136448706916   11.68249791974634
H        11.81474479111801   15.33523554440617   12.06838325154480
C        10.04029432719654   14.60138974706825   11.14628326568964
C         9.33273625994458   15.89828139111089   11.05545385865483
C         9.74098830784677   16.84478638911697   10.11382780587997
C        10.92399563066675   16.58126290738019    9.22891987762328
H        11.85256757586606   16.68354007687056    9.78998864625471
H        10.94704277013205   17.28773212265573    8.40301687503672
H        10.89034583786858   15.57046598516919    8.82540221557725
C         9.02892689552003   18.02815003158871    9.99231024252340
H         9.34302618023362   18.75746930361962    9.25879780611120
C         7.91866317824709   18.28918434229617   10.78083260461967
C         7.13599510123759   19.55732236139210   10.62832176485894
H         6.14176672378239   19.33677748197947   10.24062654471035
H         7.62963778367433   20.24230827137632    9.94371132997990
H         7.01455551317741   20.05011928862077   11.59160915442699
C         7.53169309683406   17.33904934585414   11.71460983142384
H         6.66807021570842   17.52800754234420   12.33601681097444
C         8.22051528293428   16.14570304693255   11.86329990962016
C         7.75353540013421   15.14941102162407   12.88481945373917
H         6.96999412286732   14.51728686737907   12.46043982529971
H         7.33332458542619   15.66342882469055   13.74655529573134
H         8.56772414984721   14.51041264768129   13.22032233314353
C         9.22885237331293   11.03965806951860   10.20876713553456
C         8.24217821556960   10.46080647245668   11.00681073725421
C         8.01615058935216   10.94703861672753   12.40791430666565
H         8.96057699322254   11.05582059508387   12.93943424085661
H         7.38128945112942   10.25487612975439   12.95475998960929
H         7.52417839812428   11.92042058534658   12.39632073659059
C         7.46688630625384    9.43713020428406   10.48331001450201
H         6.69974627987517    8.99111294622272   11.10026616443038
C         7.65103683056614    8.98197430388636    9.18686945990485
C         6.78980797203813    7.89720241870842    8.61742753894996
H         6.07815797319945    8.32588272940671    7.91210417191896
H         6.23257978232629    7.38922803618089    9.40047269624862
H         7.39276128500870    7.16685914167414    8.08096940992039
C         8.63938709643772    9.57108514376350    8.40956073809659
H         8.78823438260304    9.22755812948066    7.39568885236365
C         9.42749708530568   10.59895661169958    8.89975001883568
C        10.46250928131102   11.25441416545417    8.03401907090019
H        10.20779208454689   12.30175407276357    7.86897727050230
H        10.52523014661060   10.75938177748822    7.06852201572966
H        11.44254772911697   11.22290059888775    8.50804065212901

