56
CSD_code = ZOYWUH | q = 0 | S = 0 | Stoichiometry = C28H8CrF13NO5 | MND = 6
Cr        5.28563862586156    3.76064275161145    8.10501196375902
F         6.54355496593771    5.72849954949364   -0.09482907759166
F         2.07565881663723    2.76046598406250    6.52049576781297
F         0.14976941674533    3.72310819738026    6.58628585968512
F         0.65083368830261    2.43023966990766    4.94475442748157
F        -0.28774711496938    8.12759253531800    4.62257230322340
F         0.55198464325903    8.26131530470471    2.64661608050651
F         1.60930672340908    9.09728103303895    4.31952628667877
F        11.92079879581993    1.90769444120351    3.04415642342754
F        10.27513526362972    0.54249506640007    3.25903922934688
F        11.66888392735575    0.80996407184827    4.87656488525782
F        10.62123962286953    4.08998782627943    8.28443140669121
F        10.54264371562233    6.00789854140365    7.31897758943258
F         8.74396666521751    5.13096954173351    8.10530675044043
O         4.86204374757761    3.07249578453047   11.01881694741039
O         7.95105609711075    2.35916855964564    7.93171319871461
O         6.30094227885461    6.44925669920597    9.03896726030307
O         2.68385484382227    5.26260872316815    7.82839525880837
O         4.22930814436426    1.00625837384210    7.44896178164910
N         5.74022939104074    4.46559158707258    5.13796584724584
C         5.01926247434999    3.33358853908113    9.91687387287661
C         6.95292033362007    2.90841708110043    8.06535541958566
C         5.96498616587806    5.42380177635977    8.66372465323489
C         3.64112592355943    4.64902942059290    7.97976308595201
C         4.58851677231812    2.06872625103620    7.66682457847432
C         5.56296664554921    4.19385675530650    6.27203701773684
C         5.93901655268739    4.77781513240579    3.84099358823329
C         4.86388895668151    5.25539915073546    3.06649279142771
C         5.08492847970895    5.59221413244246    1.73939547308263
H         4.28115332973000    5.96174034927469    1.12278392302412
C         6.34534480307967    5.41669819945953    1.19426210161158
C         7.40787504976777    4.92957606644841    1.93618164240397
H         8.37688750184819    4.81976070232034    1.47602269846640
C         7.21947582517371    4.62244738095192    3.27540469108830
C         3.52947104533413    5.40551986397828    3.67113773705626
C         2.95884900070411    4.36543227835735    4.40029324741203
H         3.46939151464862    3.41873252758074    4.49467069735622
C         1.71936225301635    4.53204716286266    4.99795565081898
C         1.14137078495192    3.37405481263570    5.76755160729680
C         1.01472441816350    5.72036273153018    4.87516481866451
H         0.05508156606949    5.84631689326833    5.35175131371966
C         1.58029170862189    6.74352121868273    4.12922373000444
C         0.85630951100961    8.05188081915617    3.94035702277571
C         2.82276223074666    6.59574770476152    3.52990568919283
H         3.24794898600963    7.41563831348618    2.97040269243989
C         8.33365061102971    4.12503085605984    4.10029371449792
C         9.12574448728019    3.07253034244514    3.65101039521262
H         8.92863993310710    2.61848394721653    2.69139690906717
C        10.15032494993220    2.58349151254424    4.44755577997711
C        11.00138670807644    1.45745838665788    3.91849237104154
C        10.41477407253507    3.12953878481895    5.69526534132082
H        11.20364572851159    2.73506442382146    6.31660722212854
C         9.63048899416867    4.18793242169672    6.12825135863503
C         9.89088251881843    4.84017479034107    7.46018378044220
C         8.60424355295538    4.69051594286766    5.34338599622417
H         8.02740435187566    5.53081908584783    5.69969719726925

