51
CSD_code = ZOZCIA | q = 0 | S = 0 | Stoichiometry = C20H22N2NiO2S4 | MND = 6
Ni        9.55952763400186    1.91748713674036    7.49443459131641
S         9.71746780194671    0.41616061272978    5.80343949882655
S         8.68448096243735    3.08393645761371    5.83523196284205
S         9.02382624841605    3.41166997634295    9.11474185975786
S         6.30870321493794    2.70376082925004    8.09725774261380
O         8.34617385877509    1.37724963747715    3.83538451377635
O         6.90513164707696    4.58147555826000    9.82912258525404
N        11.74946761637088    2.47732076652747    7.65665869039599
N        10.13369406512474    0.63462770573005    8.80747298393546
C        12.51075780930992    3.40788604826641    7.11032685486873
C        13.86373580930836    3.56230346807238    7.46362283498774
C        14.42232509162345    2.73884113755913    8.40448468901186
C        13.62387650712133    1.75535071748389    9.01321206049491
C        14.11182125878468    0.86386927936638   10.00838902902423
C        13.30306957248159   -0.06836192954471   10.56798085594399
C        11.93837290864564   -0.18116123657167   10.18185458670076
C        11.05967620448613   -1.13006252147358   10.73311898290463
C         9.76296450749020   -1.17902634913874   10.29399223317578
C         9.31947404075883   -0.27622423850425    9.31396025682942
C        11.42052143516972    0.69070891657413    9.20212002149976
C        12.27813518094250    1.67136335748670    8.59889328156377
C        11.87670682115576    4.29626637046982    6.09641364734091
C         7.92717234799902   -0.31819745047048    8.78791265444450
C         8.84350173843857    1.62380052186108    5.03270018418418
C         7.32882460788102    3.61020289549399    9.02636485889095
C         7.57317080548801    2.39894352566199    3.21253413882531
C         7.07825915179709    1.86970700255985    1.88012996877190
C         5.50931709191049    4.84111078428622    9.88650324037185
C         5.27736601377330    5.95190176733114   10.89321957099122
H        14.44965378792290    4.33261429945317    6.98607726560036
H        15.46005819083759    2.83689212995425    8.68992831371373
H        15.14683520699469    0.94905030647501   10.30571662477320
H        13.67638663375789   -0.74679335109347   11.32086330163736
H        11.41783236123436   -1.81068477727613   11.49167649925243
H         9.06712803979808   -1.90219103224447   10.69030599217874
H        10.89717024905297    4.60509067843201    6.46139253919546
H        12.48743189902598    5.17014134813703    5.88946436039929
H        11.72278589185971    3.74290271903902    5.16981760723656
H         7.72506849871362    0.60257616403325    8.20974487503993
H         7.80746696919563   -1.17494239233481    8.12464041311432
H         7.19979373254348   -0.39997633561223    9.59229879057158
H         6.73733307099544    2.66432931284557    3.87158338836937
H         8.20011442866213    3.28986692261335    3.07934087656388
H         6.49116507792862    2.63448297658215    1.38062396169110
H         7.92123329758125    1.59681056981700    1.25098046615652
H         6.46098319861493    0.98924581865786    2.03534223123691
H         5.15563838707399    5.12823053172189    8.88795381147276
H         4.98443092305377    3.92217423344663   10.17811501794359
H         5.64615307697857    5.65063088350887   11.86998781967531
H         5.80591938290363    6.84987849627676   10.58519102888662
H         4.21479574179599    6.16645975032125   10.96137643556459

