46
CSD_code = ZOZDIB | q = 0 | S = 0 | Stoichiometry = C23H20ClNiP | MND = 7
Ni        1.56736308238851    1.80940878913387    4.42948266531459
Cl        0.57269916583904    0.15373529032350    3.65376926555242
P         0.79625675268608    2.96228071942066    2.82345129036675
C         2.23700965778332    3.18274121096851    5.87504581418539
C         1.70997369092807    2.08445904191348    6.55976178718100
C         2.42534945314363    0.94073111900429    6.11609570352984
C         3.51854479287821    1.36735297149347    5.29276866121159
C         3.38212739906938    2.73628130283814    5.10592901930368
C         1.52408140973750    4.62054202536196    2.58867749671280
C         2.51105713454386    4.87334171703170    1.64400858294399
C         3.07894442211324    6.13288940474325    1.55737389822254
C         2.67448595925308    7.14138053151685    2.41564057061863
C         1.69669634826561    6.89086230506045    3.36624343430204
C         1.12791851450798    5.63537916086378    3.45649239694435
C         1.07901021229281    2.16218505865418    1.21410015992958
C         2.28477751739262    1.47707097045091    1.08129305961555
C         2.60189410135020    0.84834582231014   -0.10630098624400
C         1.70930792972659    0.89164108961423   -1.16639685513151
C         0.50262456567065    1.55652316046006   -1.03117243252289
C         0.18215510162345    2.19352544202139    0.15607840605658
C        -0.97661352713148    3.35308280109714    2.88695651659768
C        -1.52865605021324    4.32942397712619    2.06091722854198
C        -2.88155527253596    4.60476719958693    2.13343003173165
C        -3.68544450258927    3.91937129377727    3.03148821984020
C        -3.13505618081607    2.96095817969672    3.86618551745836
C        -1.78230157711826    2.67902162331276    3.79689865860096
H         1.98081719274901    4.21987446092130    6.03214921946616
H         0.93486878479404    2.09765081352975    7.30866825732905
H         2.30061403531287   -0.06086275811346    6.50162375375337
H         4.32070364801913    0.73797775236406    4.94261021241050
H         4.06944542411228    3.39533517963531    4.59714936058497
H         2.82969975196305    4.08632494352492    0.97503736929137
H         3.84239602064298    6.32624252123319    0.81799359331931
H         3.12243456293309    8.12158971229742    2.34721978751880
H         1.38226725443645    7.67558527722005    4.03880377754267
H         0.36498140246200    5.42963751505781    4.19627059038978
H         2.95486008294785    1.42726587324212    1.93614387208275
H         3.53610789003903    0.31568252966227   -0.20524200376995
H         1.94990581064781    0.39412247660685   -2.09423804525466
H        -0.19860026498281    1.57433525285240   -1.85262170938289
H        -0.76822865674656    2.69517871918725    0.26168963715366
H        -0.89615705651031    4.87735560564756    1.37530112789982
H        -3.31091678916703    5.35883631676688    1.48981620034084
H        -4.74148687756533    4.13969375730315    3.08342926983328
H        -3.75967324705017    2.43436773636696    4.57209107142660
H        -1.33438906978668    1.93280410688806    4.44378654722630

