73
CSD_code = ZOZFAX | q = 0 | S = 0 | Stoichiometry = C26H40ClNO2P2Pd | MND = 4
Pd       11.50776840643116    6.02979829847770    2.91725614782060
O         6.13969116731867    7.17491275573658    6.77253444840745
Cl       11.70151535671402    5.26057081415244    0.79494664505453
N        11.33339931718598    6.71482172947437    4.82377279378649
P         9.40176343119666    5.32477351488102    3.22252794908934
C        10.07879495287809    6.89158545600551    5.33677680206655
C         8.98841702353689    6.20730593005911    4.74587128707175
C         7.70423942641137    6.33028046570752    5.24646562390517
H         6.87713519085887    5.80283259886558    4.79677868204165
C         8.48371352935163    7.90381377770722    6.87021082418317
H         8.30626339447537    8.60801513200487    7.66837182379166
C         9.76684449775610    7.78200939781587    6.37676497090513
H        10.53966988036395    8.41950973038020    6.77925648275037
C        14.87005206927972    7.50224994363412    5.48367993413888
H        15.76374479830534    7.66364958170109    4.90083668604410
C        13.68294239105419    7.19840705441266    4.82401817767695
C        12.47569292550228    6.97899527605286    5.52442087399033
C        14.89953633568581    7.57522390358646    6.86552361014013
C        10.53074637049679    3.16861376054681    4.37219889229914
H        10.62510759826634    2.09422671196283    4.52109554184321
H        10.48544194350324    3.65237106123393    5.34967549716079
H        11.43035744139915    3.52964128754587    3.84428949548647
C        13.73622064708123    7.26605817305806    7.57681182283751
H        13.78757087007025    7.25277602752786    8.65440753341282
C         7.99732695355363    3.08009806951019    4.26181763013655
H         7.98885335301052    2.00030483427079    4.40432069095730
H         7.12173439605000    3.35244118734937    3.67540116841713
H         7.92415879365564    3.55535537726940    5.23814570117954
C        12.56149823299323    6.96998801078159    6.93113370085958
H        11.69851625854897    6.68408116747634    7.51308735406137
C        13.74908098302990    8.50997088865510    2.15884867692629
H        13.87438603527039    8.26101705093808    1.09703556481457
C         5.82182944251661    8.00111256217126    7.86234934662752
H         4.76148460623055    7.84268160896641    8.05385071645222
H         5.99182655087475    9.05848286384830    7.63168038993758
H         6.39436336675245    7.72927035572742    8.75586015836831
C        14.91299163422210    9.36887657668222    2.63434411156572
H        15.85944225251474    8.84338985370691    2.51788935078846
H        14.78472708035978    9.63425596105602    3.68218893929504
H        14.96127129790345   10.28826197612185    2.05230115091881
C        17.19350997315788    8.20345349052898    6.94761844186614
H        17.91583709280154    8.45011654614582    7.72436784340005
H        17.06953398093615    9.06689046718008    6.28412898793913
H        17.56736386480559    7.35213734128314    6.36742271540045
C        12.39785407792039    9.20550610589991    2.34582206318383
H        11.58257952183473    8.53606645522281    2.02116373282973
H        12.34552280724504   10.12315592535333    1.76217362326338
H        12.24412294003834    9.45307161020579    3.39790783051136
C         8.08958306445828    5.84410065803749    2.02552147555058
H         7.11043568231379    5.83628679706678    2.51887799980014
C        15.02484307183293    5.79913742330726    2.67807265385972
H        15.91693643446802    6.16921666280949    3.19781373239829
C         8.07590637716676    4.94190225356179    0.79710077236794
H         7.43355630539053    5.36702423707420    0.02739059142201
H         7.70404370460794    3.94846689500200    1.04049406945633
H         9.08297208109553    4.85041114999523    0.39075957087441
C        15.28225187900105    5.71237257424344    1.17842969696750
H        15.66497078762552    6.65327009051014    0.78756837330277
H        14.35835474608832    5.46472292624702    0.65638119835880
H        16.01378751588215    4.93357760643511    0.96846449338231
C         8.47700597954476    7.27899009178150    1.66078948597572
H         7.77108180579455    7.70924347478372    0.95271499836271
H         9.47333080882303    7.27859020685939    1.20022615808753
H         8.50248502346292    7.90709442432656    2.55459280041456
C        14.61352266961065    4.44166681593175    3.25282131384547
H        14.41219742535792    4.52429887575915    4.32376965854697
H        15.39237683805247    3.69654277197651    3.10054268661017
H        13.70151044435245    4.09803607829803    2.74764266144940
C         9.27859056997165    3.50391704137699    3.55713604249327
H         9.35127028207777    3.01171198728635    2.57825623625663
O        16.00209907971191    7.89017742632804    7.61934538395150
P        13.57350732030816    6.88864934469353    3.04702984155473
C         7.44123564172179    7.15136351751500    6.33740566916457

