30
CSD_code = ZOZMIK | q = 0 | S = 0 | Stoichiometry = C13H12CrO4 | MND = 9
Cr       -0.90460103225044    7.97793827249936    4.48563348942698
O        -2.22779168948992   10.61333965981929    4.08289175951054
O         1.42790377499912    9.82164001878735    4.54192457073373
O        -0.99086161858232    8.94793865843633    7.29555436989201
O         1.62407066106617    6.45381196756704    6.05936213836946
C        -1.74811930818794    9.56960984816878    4.21102045241223
C         0.54069073630964    9.08173405279734    4.49586900428976
C        -0.96464139631933    8.54049230257242    6.21550760118408
C         0.74153660034134    5.38384743159442    5.76891664289232
C         0.10821926321927    4.98806288675600    7.10466342086829
C        -1.22906685423764    4.29266462800649    6.90141787834561
C        -2.21657865122757    5.28465535769046    6.29584369536296
C        -1.66674533569995    5.88190794610384    5.02885178598969
C        -0.28433679697414    5.83380935335546    4.74789815424915
C         0.17972602238541    6.28770323949456    3.50102390383441
C        -0.70460176118040    6.78639503822331    2.53084194298701
C        -2.05937887154983    6.90322106024993    2.84646490785607
C        -2.54271307474299    6.41466809536894    4.07216355083147
H         1.30931759039728    4.52987749769487    5.35440529361884
H         2.13864337092013    6.69338589912237    5.28147770766165
H         0.80289617660249    4.35486153405963    7.65611797270028
H        -0.03283634457314    5.90819835383514    7.67484133542061
H        -1.60851532570146    3.92667391586293    7.85583767754748
H        -1.10529548739441    3.43432979884056    6.23491025962431
H        -3.17230542634335    4.79601926065062    6.08564952739347
H        -2.40843363801534    6.08403036202056    7.01835795291692
H         1.22506853626299    6.15128607224729    3.23822214893591
H        -0.34069848561588    7.05371459649960    1.54662354652500
H        -2.75969365407299    7.26240735777127    2.10174605528844
H        -3.60945798034380    6.40277553390354    4.26266125333129

