112
CSD_code = ZOZPIN | q = 0 | S = 0 | Stoichiometry = C51H54BrCuN2P2S | MND = 4
Cu        4.95186410247588    2.33408493507105    3.85133880341010
Br        5.86612665120890    1.77871474828449    5.91130812908858
S         6.33989408775992    1.36315365783502    1.77786656429902
P         5.66754837698106    4.38590255251595    3.24889710779007
P         2.91885801985868    1.69054321285716    3.22458776138861
N         8.08838277090752    0.94641153945424    3.64696503111388
N         7.33263638704019   -0.97540346771090    2.51571992326809
C         7.32397524291916    0.35767129658468    2.69579022562479
C         9.36216155713522    0.63546140614517    4.11698845669266
C        10.30431498157231    0.00362386666789    3.30912290837433
C        11.57633205055029   -0.23670891098426    3.79648938906953
C        11.91910134659346    0.15426037608361    5.07936660239853
C        10.98352835448082    0.79519481060165    5.87717503523998
C         9.71025346372870    1.03990171234347    5.40350542632824
C         6.55570676435358   -1.53845718261783    1.42953643047422
C         5.09268290980046   -1.79324331684565    1.80148215722627
C         4.28492256451507   -2.26557978817561    0.59714224671326
C         2.81118899957268   -2.43390535230743    0.94262462938157
C         7.77949535480448   -1.89004192631250    3.55556391285514
C         6.97882427633251   -1.76248555787331    4.85381742053233
C         7.61485678138214   -2.56235139945918    5.98589024830703
C         6.82188765738112   -2.39406457228128    7.27557279566059
C         5.60952592193005    5.01440932034167    1.54303192202171
C         6.43668607472810    6.03213638934240    1.07569456671771
C         6.32288091745010    6.45959107274701   -0.23368185059034
C         5.39234127224046    5.87807443313570   -1.08196688642864
C         4.57338700496103    4.86065386521090   -0.62252563801475
C         4.68449433835538    4.43076588469185    0.68681902426185
C         4.93562651309116    5.74302435441292    4.22301414652160
C         4.63169485477040    5.45743296813265    5.55323233208752
C         4.02970995297991    6.40896225008995    6.35320772634821
C         3.70568594318865    7.64839542152253    5.82672490531378
C         3.98131369617582    7.92817776774709    4.49840640342581
C         4.59041047805808    6.98134415838798    3.69476134756992
C         7.44128872164089    4.49016974698639    3.64283128155934
C         8.35493550224028    4.02432583826599    2.69576380920943
C         9.69250325866271    3.90527767293463    3.02149018964479
C        10.13058169712202    4.23444753798526    4.29441292961356
C         9.22659162825091    4.69136208727162    5.23894174983696
C         7.88579330015533    4.81501387562498    4.92156518907073
C         1.99176700832778    2.91121493401459    4.19877289195238
C         1.96390381497290    4.22632206847130    3.73421918064922
C         1.39777800478514    5.22317914771656    4.50288137076889
C         0.88001622332808    4.92276898198945    5.75325565313820
C         0.92887436137872    3.62373237169979    6.22993769917577
C         1.48471347354721    2.61763404343750    5.45973541015936
C         2.27434417265871    0.09640970914582    3.83877414621050
C         3.09566944189262   -0.63983590442946    4.68716524237279
C         2.67026881919696   -1.85932016643733    5.18105749428042
C         1.42718027418263   -2.35319227417474    4.82325752542427
C         0.60803138406010   -1.62419238610263    3.97527655961178
C         1.02593040342998   -0.40260778697179    3.48128673533455
C         2.13111658225808    1.79071406794220    1.58155872762863
C         2.87383814932826    1.31698033856859    0.50317825742465
C         2.34313472369390    1.34642602841111   -0.77301940301900
C         1.07155957735272    1.85487328557706   -0.98091325962667
C         0.33364956484065    2.33703382319689    0.08856043163542
C         0.85708999028152    2.30753869556300    1.36827666383807
H         7.72514057375568    1.82921469147396    3.99078285672674
H        10.04279645404523   -0.27359013026034    2.29756002034986
H        12.30426328655047   -0.72540288082985    3.16539246268605
H        12.91375658234099   -0.03530762819253    5.45384036259591
H        11.24740685042810    1.10341572367520    6.87747459508692
H         8.97026746361014    1.52704425013956    6.01985550606925
H         7.16640921122139    6.48046027064454    1.73703925282400
H         6.96340519878201    7.25062447328077   -0.59699330990420
H         5.31274570194446    6.21635545078774   -2.10484470391013
H         3.85390363078963    4.39646368019072   -1.28179385728271
H         4.06524513146469    3.62003994685382    1.05036555057230
H         4.85898834564237    4.48230453491152    5.96299078004353
H         3.80530995829688    6.17837579258435    7.38410845578826
H         3.23036295469151    8.39334556631708    6.44795920361650
H         3.71846269696106    8.89081101976146    4.08290476570794
H         4.79335383332196    7.20599842606456    2.65697749159051
H         8.00631566104411    3.74538855598307    1.71057132381151
H        10.39378047317740    3.54315872938313    2.28383343332819
H        11.17386309059346    4.12589686114304    4.55033769227434
H         9.56289703516025    4.94091609886579    6.23395531119258
H         7.18469693937979    5.15773322793139    5.66890323124834
H         2.38807135587726    4.46155681292247    2.76459107847415
H         1.37395392997189    6.23829137032628    4.13427735494257
H         0.44735880152788    5.70547984263941    6.35844775668302
H         0.53776508891508    3.39139118540150    7.20963569741267
H         1.53300307379909    1.60553088754672    5.83762932524783
H         4.06584547567153   -0.25145568292796    4.96595569624935
H         3.30926429888726   -2.42162764287173    5.84590198286050
H         1.09380305746866   -3.30749349543867    5.20420270508566
H        -0.36162912354000   -2.01052746590871    3.69630556731977
H         0.38585285254049    0.16140609475634    2.81720063653738
H         3.87716616979217    0.94892071966354    0.67121552067657
H         2.92450971293110    0.97946051650885   -1.60623456230069
H         0.65536070399253    1.88239487105598   -1.97742897557439
H        -0.65628348496556    2.73847936153155   -0.07509982796195
H         0.28082350346140    2.69180426327224    2.19943572882342
H         6.59277376359998   -0.83530518241555    0.59326160973043
H         7.03415663442105   -2.47114785490427    1.11797751681855
H         5.03465492979667   -2.54053068436708    2.59497815387720
H         4.66184769864320   -0.86536212568875    2.18595126004616
H         4.38447270116292   -1.53804966558469   -0.21119129020414
H         4.68951701780165   -3.21583566033293    0.23972934623219
H         2.68614000792177   -3.14035156458075    1.76061830074818
H         2.38283999453217   -1.48207431976344    1.24929198959762
H         2.25515929792758   -2.79912372415161    0.08242096995655
H         7.67902900943418   -2.90145699075922    3.15690201005186
H         8.83843289157620   -1.72237234405709    3.77188719415772
H         6.93573595670880   -0.71915200723700    5.16321890303251
H         5.95565696292111   -2.10601408946432    4.69083892657305
H         7.66634500418846   -3.62010680643519    5.71333820101462
H         8.63595597037641   -2.20642582257718    6.14065782413772
H         6.72999139714602   -1.33865666426321    7.51948657275407
H         5.82206804951967   -2.80828484701004    7.16611183390725
H         7.31532648298043   -2.90383420309650    8.09922890695206

