63
CSD_code = ZUBTAR | q = 0 | S = 0 | Stoichiometry = C25H33NSSi2Zr | MND = 13
C         6.03781940456743    2.71237146196179   10.30416889250179
C         5.39419555767514    1.49800189909649   10.31018009155757
C         6.04966362466076    0.43448491364631    9.60358147189658
C         9.17301019854716    4.18243480159008    9.68889803642821
C         8.97001132312417    3.12339051036887   10.60660768285335
C         9.52703032262629    1.95175016441159   10.04868408226280
C        10.08729793482987    2.28624898053858    8.80289588787424
C         9.85742732591211    3.65632879118478    8.56658298066528
C         5.87388870108964    4.77331882623960    8.21744664863137
C         7.03618122285499    4.98901664815120    7.45861286099464
C         7.11414969871838    3.97154666510148    6.48337658145175
C         5.99924878600025    3.11584828105312    6.65635405188295
C         5.23826828961477    3.60731360242389    7.73415643305172
C         8.63971367076669   -0.24253221819786    7.26411577665876
C         9.44807859244248   -1.28195355691201    6.79177087967267
C         9.52760207211016   -2.47410281604368    7.47447284809679
C         8.81020690510585   -2.65891083263281    8.65301383445978
C         8.00095884876533   -1.65074117736464    9.13448691958432
C         7.89892269515724   -0.43648371833742    8.45172059862429
C         5.56338813932653    3.41710845760649   13.28833938964321
C         6.74613414010426    5.57978620146250   11.56059276494145
C         3.83232729371463    4.93827605024120   11.12146587673393
C         2.86602956039923   -0.06528937860582    9.67347801691641
C         2.48607645359138    1.99841185045774   11.86714696430174
C         4.26964211867015   -0.45111215870737   12.43852303151645
N         7.13508957785899    0.63298978707812    8.91376366758092
Si        5.52491521776713    4.09487971588612   11.49041264634885
Si        3.77988844258835    0.83116163720093   11.10228911039768
S         8.47566725243162    1.24368224941435    6.41460063141296
Zr        7.53461753533722    2.72816197803824    8.58371623844143
H         5.66659511562982   -0.58277088604330    9.70556495597192
H         9.01392665298254    5.23441297049272    9.88737277314294
H         8.59499654896261    3.21144669101542   11.61716345542004
H         9.61874713148823    0.99480129319105   10.54823620544240
H        10.68259707562827    1.63087374342481    8.18156859578574
H        10.26425760166440    4.22858615933515    7.73918410450616
H         5.45203423590430    5.45836483850645    8.93324524514582
H         7.66644969588390    5.86962214194842    7.50035384542810
H         7.82159242291134    3.92454385140909    5.66295829474487
H         5.72523361884175    2.29727556143950    5.99977232934493
H         4.26517617735105    3.24398772689093    8.04017974986391
H        10.00403182226708   -1.12282574619509    5.88029313340611
H        10.15744591638860   -3.26748315716901    7.10026121047042
H         8.89333673769959   -3.58709530575445    9.19783722673382
H         7.47277738803064   -1.78251754760335   10.06900177788230
H         5.06079376046061    2.46113767311320   13.37552067931272
H         5.09030146729242    4.10916104622511   13.97788232779399
H         6.58654836156059    3.27614977239501   13.62383145084051
H         7.69376005639962    5.32293708606526   12.02080131902985
H         6.30602268228586    6.36548744650528   12.16902454224672
H         6.95194458742853    6.00948113629199   10.58536507369976
H         3.30106810967731    4.45139804980945   10.31087645802681
H         3.97290918221669    5.97797122493075   10.84049600732222
H         3.18403688751291    4.92911965581244   11.99089905311860
H         3.32037450948945   -1.02054661848903    9.42931683306675
H         2.86331530621883    0.53152716057833    8.76500358559725
H         1.83070558366170   -0.26138019386854    9.93635782747491
H         2.88977599499031    2.63429238653583   12.64334191995851
H         1.69800988291951    1.39814165740493   12.31284511936712
H         2.02320107985106    2.63362628823936   11.12114900420481
H         4.76651939025862    0.01512031364987   13.28414983041936
H         4.94328695523518   -1.20753999538321   12.04746519775323
H         3.39177715455221   -0.96429404105473   12.81982597009509

