42
CSD_code = ZUBZEB | q = 1 | S = 0 | Stoichiometry = C18H18IN4Zn(1+) | MND = 5
I         5.52594310844334   -1.21616755180942    1.65793218235052
Zn        4.67202010915373   -2.86953146233895   -0.00098068717733
N         3.90557444065172   -4.35052745369167   -1.49000791782740
N         2.74088244466634   -3.41532496941370    0.75622325137904
N         6.11760014518157   -4.45239774703967    0.04889446743001
N         4.63871317047941   -1.78031945531653   -1.84849900969946
C         3.02565817454528   -5.26206847525916   -0.77161903508787
C         2.19643725483262   -4.51621062062926    0.23924531631004
C         0.94922403756290   -4.97573660778395    0.63740050400120
C         0.25056720415537   -4.27068017469160    1.60420213926930
C         0.82310743855642   -3.12572042179396    2.13720711779965
C         2.06963474376901   -2.73555513711380    1.68271559784926
C         5.06464213057120   -5.03847117408275   -2.04217273154805
C         6.08089800448208   -5.31453244955852   -0.96648997979154
C         6.95591696529855   -6.38798804969593   -1.05089751363901
C         7.89814062287363   -6.56688887334632   -0.05078486395409
C         7.92996283647770   -5.66621885944187    1.00309183888213
C         7.02039004225868   -4.62449723503995    1.01134565756256
C         3.18941524352952   -3.59274117496028   -2.50710793558524
C         3.92612781956868   -2.32191331566181   -2.83581919509235
C         3.83795080370290   -1.73099360643499   -4.08795717661284
C         4.50891564939083   -0.54039837027959   -4.31756054794364
C         5.24863751316826    0.01700379795236   -3.28568121316878
C         5.28484230575132   -0.63800041849988   -2.06809658846739
H         2.37680851980449   -5.82812327513186   -1.45438292956178
H         3.64554977501652   -5.98236070387099   -0.22619203019773
H         0.53948141536677   -5.87208972427094    0.19880575214442
H        -0.71993246811568   -4.60865022969724    1.93215065992170
H         0.31789981483878   -2.54502036148095    2.89096739840836
H         2.55107899009105   -1.85102824024912    2.07542111752923
H         4.78351043851745   -5.97127730145811   -2.55040815269782
H         5.53523240351703   -4.38315619769863   -2.78350671270948
H         6.89935918860869   -7.06529097411458   -1.88848341391397
H         8.59062379905133   -7.39286051861692   -0.09425234094905
H         8.64440892693726   -5.76460332876686    1.80335781581960
H         7.01500394721617   -3.89925773246489    1.81287193898026
H         3.02285976568587   -4.18446915553473   -3.41797156547251
H         2.20892467804203   -3.31519972197514   -2.10455599583525
H         3.25076038601172   -2.19628542919415   -4.86412493825052
H         4.45535647316093   -0.06063280124530   -5.28224228612237
H         5.78730812765075    0.94066527874974   -3.41723662409241
H         5.84666360952756   -0.23417977704816   -1.23760137023945

