60
CSD_code = ZUCGAF | q = 0 | S = 0 | Stoichiometry = C34H17Cl4CuN2O2 | MND = 4
Cu        2.29513456750782    1.06814966921956   17.81934828405414
N         1.14344321810766    1.88837713108822   16.40193351631439
N         2.93015059150188    2.73382712016131   18.64115624922688
O         1.81914027071519    0.27471937776034   19.55674531835390
O         2.89747254772131   -0.38845129425181   16.74051869833058
C         0.51336190375879    3.10121826697096   16.69651567674967
C        -0.89199905346576    3.16960763527402   16.79069714342058
C        -1.50702594435652    4.33619609209684   17.13818234406994
C        -0.75555757493738    5.49790939434362   17.41197471955535
C        -1.37103514360944    6.70922343665770   17.78858846184019
C        -0.62297956240394    7.82106978936727   18.05571647455747
C         0.77649979025671    7.76651684995956   17.96498092930373
C         1.40465433475636    6.60923758446142   17.60008258125285
C         0.65983443284302    5.44582246871722   17.30516652486716
C         1.28068818196630    4.23131292211354   16.92399536111640
C         2.74302694099334    4.15799942415436   16.71726553840522
C         3.35715465733130    4.81293946246085   15.61883870892323
C         2.60869734952317    5.54523294085554   14.67138163833893
C         3.22642464745025    6.16496055594429   13.62136740591983
C         4.61843713456000    6.08485624033138   13.46566846979193
C         5.36984421924270    5.37435407622672   14.35978002529445
C         4.76501957769443    4.71805309990148   15.45083150154746
C         5.52432839505515    3.96535066797497   16.37337127616842
C         4.92238587770614    3.31861360698256   17.41077409265997
C         3.52512942376348    3.41426185222195   17.58014182195479
C         0.78160967181587    1.19221797390972   15.37521319552294
C         1.30757406323117   -0.05773819217468   14.95735725820351
C         0.76590286470476   -0.60208647350683   13.77190020997693
C         1.22221822386487   -1.78382062254621   13.25953854715061
C         2.25438350479538   -2.48501244126132   13.89541063507779
C         2.79149187744851   -1.97773829874320   15.04510324079120
C         2.34911397055380   -0.75684212728795   15.65508393802110
C         2.95116830214700    2.81548314692681   19.85644789312985
C         2.52010517136628    2.10311252483309   20.95421303991769
C         2.64851870775981    2.60713282830808   22.26195276375301
C         2.19396156887571    1.88112309786319   23.32857917933074
C         1.58768418223408    0.63421434745741   23.13032897104893
C         1.45809198929202    0.13012591048764   21.86462367000860
C         1.92625267570099    0.80285353026995   20.69409876515571
Cl        0.70523704578872   -1.39866757607618   21.62140518274797
Cl        2.35144678412884    2.49079646261383   24.93690574730750
Cl        4.06085506626842   -2.82175961298983   15.84165340948594
Cl        0.53912723952922   -2.43132480854354   11.80976396442661
H        -1.46352049185138    2.27181873479326   16.60673538945846
H        -2.58337269260013    4.38258245399946   17.21586792754483
H        -2.44842974409968    6.73891173600180   17.86375913178152
H        -1.10124120241269    8.74566418207704   18.34219637258909
H         1.35631088244992    8.64989560657052   18.18764154487599
H         2.48203873582518    6.57029436396995   17.53617575289083
H         1.53723975666917    5.60621024053532   14.78649022279797
H         2.64365066010174    6.72017714012263   12.90181027784561
H         5.08932901461432    6.58370358379594   12.63196336209950
H         6.44120389499210    5.30120963691219   14.24284342509751
H         6.59376868899885    3.90295793894458   16.23877289751735
H         5.48856154062879    2.72951560551233   18.11571009036370
H         0.01380081171686    1.61312818404516   14.71882154944615
H        -0.02276372732606   -0.06585689677932   13.26570217256150
H         2.61760640142681   -3.41363119505435   13.48484699901378
H         3.10679807502555    3.57266171380087   22.40380114525333
H         1.22264570264902    0.06872893021942   23.97295936578709

