88
CSD_code = ZUCHAG | q = 1 | S = 0 | Stoichiometry = C45H40P2Re(1+) | MND = 9
Re        3.17719038911926   -4.46819930127434  -11.21054959045598
P         3.02430731702003   -5.44957880887185   -9.05956816037905
P         0.99205360349081   -5.44345603150920  -11.41376366552011
C         5.43943614133093   -3.88040455532279  -11.62170852391467
C         4.70867788925506   -3.68798279583639  -12.82433317219421
C         4.24536317980426   -4.94904009193987  -13.25875797262191
C         4.69278392424854   -5.92679872083481  -12.31863983013915
C         5.45380508280892   -5.26122307386846  -11.33166131767707
C         2.20452958185166   -2.66216179276397  -11.18167111574560
C         2.39753365452201   -2.42825270931265   -9.81723548395649
C         1.45877636148755   -0.41629114551300  -11.86137164528465
C         1.05333758401271    0.46746189733911  -12.83671258902530
C         1.04522820563678    0.08560781978986  -14.17167375846185
C         1.43292657052566   -1.19885823853161  -14.52461998622119
C         1.83841096628133   -2.09042292270992  -13.55541328514227
C         1.88578296662260   -1.71404558598561  -12.20156952759251
C         3.10571535789264   -1.08161982038798   -7.88329269040890
C         3.88702416942817   -0.09887625022560   -7.30975948914325
C         4.80583210283527    0.59893511546152   -8.07778882751527
C         4.93583567372392    0.30940165778148   -9.42853719376202
C         4.15475226506730   -0.66814838459602  -10.00829146158033
C         3.21684318823546   -1.37680549458770   -9.24702543163255
C         1.25043368292660   -5.75813339747212   -8.59727526874569
C         0.42497500969285   -6.20543399170627   -9.80016997467456
C        -0.74222560421612   -7.23556882995489  -12.59801729069453
C        -1.10056215377079   -8.27165120850186  -13.43821655185047
C        -0.14862414353915   -8.87420627600425  -14.24801179730670
C         1.16372035684092   -8.43573123528430  -14.21787203036884
C         1.52717054155957   -7.39726436860046  -13.37672262591942
C         0.58017483650543   -6.79365162513814  -12.56232341794053
C        -0.80614222917595   -3.38213698470820  -10.83639927753003
C        -1.67278705202649   -2.36167110499243  -11.17876104812320
C        -2.01510280523151   -2.15526183009847  -12.50580759303342
C        -1.49616905989552   -2.97869843383300  -13.49029405406544
C        -0.62937974285760   -4.00234824484365  -13.15239306148993
C        -0.28371316425602   -4.21410820552918  -11.82180862094785
C         4.83936435034659   -3.79334158239261   -7.82716976626232
C         5.44176437776195   -3.14106294341452   -6.76812603047438
C         4.93384619099599   -3.29304961846420   -5.48850800882717
C         3.82889102840744   -4.10117054531794   -5.27221828308455
C         3.22609985357880   -4.76072056075037   -6.32870899123515
C         3.72969809540425   -4.60619036727532   -7.61739501257468
C         3.34092718204357   -8.03245418815252   -9.97806912123058
C         3.84706150907981   -9.31749851287647   -9.97875831258745
C         4.75294662278288   -9.70361404880687   -9.00205401837994
C         5.14909398368533   -8.80217179318855   -8.02819108102356
C         4.64007386069639   -7.51442204577552   -8.01860111851532
C         3.72544444932121   -7.12704197902277   -8.99124791281274
H         6.00826573679548   -3.11814024211164  -11.11004148730499
H         4.63927407840801   -2.76172836814294  -13.37347527345570
H         3.77355236329278   -5.15280143877761  -14.20840837281935
H         4.65125025684964   -6.99853048052740  -12.44283928421767
H         6.00247809317011   -5.73872193461338  -10.53338395253061
H         1.45743530480877   -0.11995541816214  -10.82360806161368
H         0.73715352697491    1.46178733990275  -12.56025518039359
H         0.72784256447991    0.78297527900498  -14.93153125248326
H         1.40986120973766   -1.50237701960389  -15.56052369844749
H         2.10953727201553   -3.10049441175197  -13.82581271546470
H         2.39357036381553   -1.62575646371625   -7.27971469896931
H         3.78325848798029    0.12205478853536   -6.25827196162715
H         5.42033546470518    1.36293079458259   -7.62732477188360
H         5.65386119523771    0.84876653583928  -10.02815927764180
H         4.26362935439419   -0.89481964755760  -11.05911807153265
H         0.86552343354014   -4.81837610449679   -8.19117357096473
H         1.21027137600794   -6.51726143437597   -7.81129956838153
H         0.51039202800930   -7.28779315523652   -9.92610849275681
H        -0.63208094397898   -5.96913351253026   -9.65496237423119
H        -1.48379073511651   -6.75549469893680  -11.97507888071825
H        -2.12500949441271   -8.61036372200488  -13.46583471705973
H        -0.43289470904907   -9.68256224893545  -14.90377961068549
H         1.90503954229894   -8.90105622132605  -14.85004625467191
H         2.54794690366442   -7.05067790865603  -13.35161728714087
H        -0.53294738016833   -3.53675473046269   -9.80323183342650
H        -2.08201193082002   -1.72313779399970  -10.41064125899583
H        -2.68758802755185   -1.35423945770961  -12.77084002584563
H        -1.76373668591713   -2.82055789735531  -14.52384495393382
H        -0.22443534636167   -4.64750772665637  -13.91921798999053
H         5.22106144689874   -3.67033467267705   -8.83070595587013
H         6.30138276252094   -2.51145091746277   -6.94013975104624
H         5.39914245091919   -2.78361257126183   -4.65891117907828
H         3.43616797475377   -4.22166888396527   -4.27387307125202
H         2.37352440050956   -5.39744619152513   -6.14636820689000
H         2.65219425942803   -7.71192915658270  -10.75176821957701
H         3.54192212800566  -10.01721357095210  -10.74272207912995
H         5.15465248869271  -10.70513264855279   -9.00521460213064
H         5.86029700821007   -9.10050889030694   -7.27299375075459
H         4.95463774329137   -6.81234379711917   -7.25949267308584
H         1.76910788206348   -2.94436824391535   -9.09580064395487

