89
CSD_code = ZUCHEK | q = 0 | S = 0 | Stoichiometry = C45H41P2Re | MND = 9
Re        0.06741532105161    1.13489938001271    4.94161609201858
P         1.07693950785771    2.43506170472352    3.27078325138956
P        -0.56304129412828   -0.14188418824848    3.09022629306035
C         2.13251907222320    0.08974388132738    5.48752444178389
C         1.95831654629878    1.19467365490283    6.36653766069540
C         0.85015783981255    0.91508832777364    7.19466605755421
C         0.34662046048871   -0.36376066537948    6.83994436713208
C         1.15326991259568   -0.87895488110347    5.80999288901941
C        -1.49222117485270    2.70565820705299    5.39834621628375
C        -2.20474991540050    1.44859907590741    5.30893352195761
C        -3.84859972407797   -0.19877509944347    6.07272155100261
C        -4.48809514573642   -0.95307158478042    7.03570139118269
C        -4.13596823129209   -0.82430945874413    8.36930444850413
C        -3.13986878466417    0.07208311914041    8.72020146672831
C        -2.49371449413578    0.82143140254132    7.75699029863453
C        -2.82741157187750    0.70273714549572    6.40411689539872
C        -2.64221941907967    3.86050630826520    7.27868307873043
C        -2.64543379250824    4.65744048789140    8.40733860977913
C        -1.45467806234493    5.14239091336698    8.92411594220138
C        -0.26201543573777    4.82864526555474    8.29693454284590
C        -0.25941817013360    4.02775214974476    7.16804604636369
C        -1.44536225721180    3.51748374162831    6.64972868750079
C         0.19805558665135    5.04504535048975    3.69990519071628
C        -0.06902953930037    6.35975789640955    3.36249664750853
C         0.13554890249252    6.79739241780799    2.06522410232929
C         0.62084433720200    5.91555850609197    1.11422866784224
C         0.88956600127863    4.60060309626582    1.45037029878919
C         0.66597770872844    4.14648997447859    2.74656757669667
C         3.82649508886281    1.79075851284156    3.05164813036241
C         5.16568457286202    1.97632387464003    3.34634764688570
C         5.56744207485210    3.05328686632704    4.11772255877959
C         4.62207970771989    3.94659609550212    4.59548351780202
C         3.28435967751818    3.76249184559125    4.30152300565230
C         2.87235234034268    2.68785728250247    3.51818174219523
C         1.01764381028687    1.54329833402248    1.61939402906353
C         0.77892868532539    0.05263243052208    1.82096631726440
C        -0.03647278679230   -2.89870695553656    2.56863826231465
C        -0.22251448514258   -4.24323327179018    2.84437399484361
C        -1.10503627361093   -4.64029708578962    3.83480499738370
C        -1.80518054645931   -3.68804365308279    4.55991635765731
C        -1.61946389324702   -2.34635332859785    4.29064097502780
C        -0.74143007255179   -1.94083365079693    3.28759869466207
C        -2.73349067598346   -0.68254677015353    1.34906170611913
C        -3.77323433159130   -0.29034079130134    0.52285192974270
C        -4.08207566701410    1.05172699727249    0.37860969648814
C        -3.35257622242332    2.00927772039087    1.06703082144823
C        -2.31828395191406    1.62159748232258    1.89736111047339
C        -2.00013486000092    0.27338468077322    2.04020591502234
H         2.98495777705599   -0.06590300738234    4.84161786913165
H         2.64682411673481    2.02134058306230    6.47349065233404
H         0.54442064583836    1.50060644455296    8.04899325721919
H        -0.43946581904628   -0.89735922218228    7.35217642129109
H         1.08229941996352   -1.86971419698882    5.38506260204357
H        -1.73107283091300    3.37055812071540    4.55876524301532
H        -2.79202773890836    1.33440707464180    4.39458823577338
H        -4.14569873628914   -0.29545654659340    5.03578071894211
H        -5.26913110158037   -1.64249470523909    6.74596077405625
H        -4.63443945959093   -1.41202541862311    9.12647978083190
H        -2.86020873986933    0.18682507402673    9.75852102067437
H        -1.71983313461929    1.50571049933158    8.06226315783207
H        -3.57251618563647    3.48537207524535    6.87738756124130
H        -3.58189909587522    4.90349123092661    8.88746573698602
H        -1.45760676468276    5.76300499719068    9.80856112425735
H         0.67192640357387    5.20726764432816    8.68911265359945
H         0.67883506188241    3.77843411674785    6.69039232598181
H         0.04326058133923    4.70505860243957    4.71129959438520
H        -0.43705157880076    7.04188375032748    4.11497433456487
H        -0.07522606605958    7.82198027651573    1.79643943971441
H         0.79630176808042    6.25518573965061    0.10357928114653
H         1.28401029066608    3.93730507062765    0.69649046965489
H         3.52839155177934    0.93781382658979    2.45904684192898
H         5.89899923558875    1.27305616498865    2.97716358091739
H         6.61293462775142    3.19324169727200    4.34991529544682
H         4.92978988913430    4.78586794149161    5.20271353840924
H         2.54537628639381    4.45679526935586    4.67677370529014
H         1.93249346398069    1.72513747369018    1.05018147395455
H         0.17016033816108    1.96202023770126    1.06983224217489
H         0.50209222334371   -0.43008099874988    0.87887950209466
H         1.66859280745050   -0.43356634310428    2.23193498121062
H         0.65736971756626   -2.60448483387870    1.79514687681543
H         0.32869832238925   -4.98513251088991    2.28410391850023
H        -1.24081387440878   -5.69084136103585    4.04642806297417
H        -2.48734329208520   -3.99239520847653    5.34036733176874
H        -2.13993249357678   -1.59058785778756    4.86326466051016
H        -2.49524098216992   -1.73124810156572    1.45935403573818
H        -4.34448826723395   -1.03628350776640   -0.01055965091592
H        -4.89474181729774    1.35146440761188   -0.26658370206541
H        -3.59497908971540    3.05637913811746    0.95936107328029
H        -1.74321383549641    2.34710361825172    2.46406633446644

