93
CSD_code = ZUCKUF | q = 0 | S = 0 | Stoichiometry = C45H44FeOP2 | MND = 8
Fe        2.28625594296617    2.33388937442725    3.89254513940960
P         1.99616681333388    0.50494488232122    4.97321046595643
P         4.36904581502150    2.12812047544047    4.26882761874611
O         5.01377079545909   -1.14730253424826   -4.48011162465781
C         1.99615346875219    4.05052304221382    2.76117096160737
C         2.09453594061614    4.44450246734686    4.13304355614087
C         1.06731558295322    3.78519584552765    4.84974245696944
C         0.29027772336306    3.02575855766654    3.90919010134454
C         0.84308829342789    3.22167203171056    2.62065634031624
C         2.81632320224512    4.54866383542823    1.61770680330026
H         3.80754444841487    4.85084198096799    1.94686133600849
H         2.33212401565301    5.39953132544769    1.13554916256263
H         2.93455679783256    3.75603221779805    0.88275586818770
C         2.99102318069417    5.51006907644328    4.67632160230177
H         3.70909687183219    5.82500559362003    3.92447473808551
H         3.53472438709105    5.17717747075247    5.55873324137070
H         2.39243045470299    6.37839733202869    4.95756901971063
C         0.66720479430580    4.04285761546763    6.26856954897680
H         0.50469647098500    3.11269966378471    6.81226894943219
H        -0.26490602362261    4.61045224271505    6.29392274992758
H         1.42835683191831    4.62021562146114    6.78720345775729
C        -1.00798085774910    2.35563978924104    4.22358957367112
H        -1.06581567780657    2.10939605417648    5.28080820744097
H        -1.13092433685630    1.43989071462883    3.64900165363184
H        -1.83748041815575    3.02359758846896    3.98224452463675
C         0.27217638634962    2.76941958859054    1.31617029244346
H         1.01971015268379    2.23359569644117    0.73362637138234
H        -0.05032974076906    3.63575911891664    0.73723428843649
H        -0.58600186003018    2.12007506609936    1.46829033490377
C         3.65199704779902   -0.21003423182818    5.46261311663011
H         3.87579385689746    0.12123224540313    6.48061424921136
H         3.62211896735447   -1.30299413030809    5.45298366346236
C         4.71642457627430    0.32310103706850    4.51159156379944
H         4.62200269339458   -0.16672512486676    3.54023347701793
H         5.72691295726107    0.16724264562839    4.90406445570528
C         1.06827579861588    0.37264556825343    6.54751067261145
C         1.60361247912717    0.83694707311744    7.74623049571435
H         2.61703913689209    1.20867766328264    7.78014297098983
C         0.85072195647682    0.82805836127180    8.90653908780006
H         1.28555625187470    1.18259239775510    9.83005746078363
C        -0.45700299581172    0.37289184376735    8.88613376949738
H        -1.04476148932424    0.36821804275702    9.79201947716205
C        -1.00758481117561   -0.07170220404786    7.69553358833153
H        -2.02921804783421   -0.42237386453474    7.66958385179660
C        -0.25445074646300   -0.06652162495184    6.53595560791377
H        -0.69105878179662   -0.41769435389441    5.61187882076995
C         1.24409904712520   -0.90683610214961    4.08579271414981
C         0.66491120473879   -0.67313111939018    2.84618427656729
H         0.70616222047943    0.32607738140220    2.44211864201052
C         0.08279863666690   -1.71003131872665    2.13837839808440
H        -0.35879579418204   -1.52158529165649    1.17035281162499
C         0.07188893741628   -2.98876842587469    2.66968125071515
H        -0.37673368441219   -3.80195207383033    2.11784233788538
C         0.63319193714156   -3.22557265026179    3.91519154549717
H         0.61509353692377   -4.22141168727205    4.33451355330564
C         1.21293187351866   -2.19031252603162    4.62450818349548
H         1.62776871268054   -2.37574017449599    5.60675662928839
C         5.63681515959974    2.67583605482190    3.08939975979570
C         6.07448610892151    3.99616103239290    3.17502795507874
H         5.72868647817313    4.61310707233677    3.99378327744083
C         6.95176967188973    4.50926764937588    2.23886624996016
H         7.28747003688180    5.53364457875837    2.31678015947194
C         7.39595505220676    3.71026010448124    1.19721028224861
H         8.07640935202728    4.11105445930765    0.46049136489253
C         6.96534956398420    2.39744132032161    1.10426137691367
H         7.30952683838363    1.77184809468558    0.29346249161194
C         6.08852695445295    1.88113877503407    2.04196840137364
H         5.75123476224845    0.86081421855976    1.95318790901259
C         5.08235464309781    2.73066518173614    5.84707211605282
C         6.44618532905261    2.75877183398781    6.11657051475116
H         7.15187478892418    2.46632886634323    5.35063708810904
C         6.89355008714413    3.16709131480176    7.36003090903160
H         7.95342496109445    3.19098671157276    7.56881641607277
C         5.98841106288869    3.54419424223150    8.34050342595691
H         6.34549552442672    3.86273434889321    9.30890187115874
C         4.62863801178815    3.51258898875806    8.07863918509718
H         3.92144181882123    3.80462460618076    8.84235409565326
C         4.18133850552165    3.10758777118793    6.83362975068548
H         3.12678922390479    3.07054249108702    6.59458652198559
C         2.88521874386121    1.31712182220803    2.43963628268835
C         3.18020205457288    0.82348579286635    1.36745685301252
C         3.49279493968087    0.20624910882806    0.14427263078089
C         3.16793028412618   -1.14204427170815   -0.07149871775583
H         2.67025081074938   -1.69064016335103    0.71669956873397
C         3.47587095254902   -1.74678185995883   -1.26590226862767
H         3.22270336362348   -2.78566705846931   -1.43050699135107
C         4.12033986504298   -1.03057326037132   -2.28126596693405
C         4.44502625804274    0.31502038884299   -2.06405749124865
H         4.94343193392699    0.85420595271890   -2.85654694099586
C         4.13637612371448    0.92596329964427   -0.87409894644620
H         4.39032302915454    1.96295278246431   -0.70150084211852
C         4.45214016188562   -1.67014112529082   -3.54390271995424
H         4.13832261036273   -2.73466021574943   -3.59984898399958

