67
CSD_code = ZUCSIZ | q = 0 | S = 0 | Stoichiometry = C22H38B2Cl2N2Zr | MND = 12
Zr        0.00000640557688    1.87291829600258    3.19357448002141
Cl        0.99478290745268    3.59110563029624    1.92023010113374
N        -3.32192801698147    1.35151090145753    3.92512137030558
C        -2.04827182421523    2.25261238598260    1.78654610891212
C        -1.16795836671497    1.97844605337004    0.74433960428879
C        -0.44777054163415    0.77587125149034    0.66280702108579
C        -0.65604307582753   -0.23181956465555    1.61396226690569
C        -1.51429431999077   -0.07197494806199    2.70203723063757
C        -3.20855877711108    0.54963242345691    5.13595389860510
C        -3.20989653779110    1.41770946569748    6.40011622202482
C        -4.26731283209334   -0.55949979224648    5.21688049994516
C        -4.53058004642071    2.16616908589932    3.82429243567503
C        -5.27417528630530    1.88306086521558    2.51509905423754
C        -4.28818600271688    3.66863619729030    3.99977995220823
B        -2.36378870938927    1.19910414104521    2.86899621394348
H        -2.56698918290820    3.20643128450698    1.70979980209934
H        -1.04336965654383    2.69744938894781   -0.06325355008367
H         0.17512406505420    0.58409560169212   -0.20232130666042
H        -0.19451204037115   -1.20171643050884    1.43135361997270
H        -1.68746323219526   -0.97562020920657    3.28493342131264
H        -2.22548548678927    0.06502863407359    5.10004813828884
H        -2.46604931698067    2.20579065745067    6.29649244246990
H        -4.18055597759595    1.87221505827564    6.57689686950939
H        -2.96133710130917    0.80714306618872    7.26543443590673
H        -5.26444090985322   -0.15144399862999    5.35933257357850
H        -4.05049368843703   -1.22051540149700    6.05274179232262
H        -4.26278242783318   -1.14178181791647    4.29837006712934
H        -5.19454663727621    1.85763033495843    4.63778902371151
H        -5.46969288027230    0.81755292911740    2.42018853375195
H        -6.22291707031515    2.41452734054130    2.50403572139615
H        -4.68724208506341    2.19806465420420    1.65868396569518
H        -3.72296665335544    3.86051090303498    4.90596121316714
H        -5.24420071502120    4.18408633688111    4.06697563628486
H        -3.73296585419138    4.08544037828221    3.16651551317925
Cl       -0.99408815264041    3.58866897726426    4.46446273057440
C         2.04826404590646    2.25252704325194    4.59961368335298
C         1.16724847508668    1.97879181445590    5.64123743708718
C         0.44752255246051    0.77598622851747    5.72301118656660
H         1.04336838423135    2.69736937576743    6.44933969676919
C         0.65615110959252   -0.23186430515920    4.77215438927420
C         1.51437969461858   -0.07202888678744    3.68410928180926
H         0.19480766240743   -1.20181796679018    4.95488409438921
B         2.36403995416183    1.19892904755550    3.51735442013381
N         3.32195174628743    1.35144834392577    2.46100344338723
C         3.20852923985865    0.54959463963264    1.25013677793925
C         3.20991063767492    1.41754874438562   -0.01410524144963
H         2.46604411025638    2.20560617038466    0.08949823998906
H         4.18056939628489    1.87205665144401   -0.19089612266678
H         2.96137775807834    0.80697303103024   -0.87942630991668
C         4.26733287971441   -0.55949248523590    1.16917738011455
H         5.26448622099333   -0.15144017048208    1.02685721249162
H         4.05060306975954   -1.22047800837189    0.33326186165745
H         4.26271165439308   -1.14182195104509    2.08765950182441
H         2.22547736149845    0.06495960760775    1.28604979435119
C         4.53055039398820    2.16618874748462    2.56167295640333
C         5.27413307691957    1.88304777668113    3.87085459896164
H         5.46961287166834    0.81753334342342    3.96578043685077
H         6.22288185392260    2.41449511511542    3.88185972890671
H         4.68722672796004    2.19809476210782    4.72727909590275
C         4.28815636115160    3.66867386675418    2.38620225210879
H         3.72302784457471    3.86048835550245    1.47992298199163
H         5.24422917806620    4.18415347030211    2.31906442288144
H         3.73279101803362    4.08546470100626    3.21945669837859
H         5.19448889370225    1.85765255735368    1.74814379240540
H         2.56665907897188    3.20650832618252    4.67618175662319
H         1.68751905487860   -0.97566824620026    3.10116257809367
H        -0.17510227927423    0.58408022015367    6.58832086996941

