106
CSD_code = ZUDFIN | q = 0 | S = 0 | Stoichiometry = C33H60O5SeSi6W | MND = 6
W         2.45093258011255   11.01379318536676    2.57999783679394
Se        3.37364328387236   10.92597609905357    5.09728813536243
Si        5.23125180384459   13.24593885720575    7.74903049999771
Si        5.04523110970933   10.38413142246438    9.44390880147808
Si       10.68442965073929   12.32543627783320    7.79332860975701
Si       10.35825575631564    9.23825764617736    8.94406149396236
Si        8.10747846343739   10.19209000148607    2.28901802439472
Si        7.90364721708313    7.24070695285658    3.83600652587207
O         0.01326286212914    9.20306563738721    3.38515909976210
O         4.05602331613856    8.38286339559802    1.98685109353333
O         4.84432971632700   12.91932490120639    1.88350280332197
O         0.78332832544436   13.58057183016941    3.28702876288854
O         1.43227703651840   11.10321075915129   -0.37178937172100
C         5.11642300816440   10.52308430469036    4.83616238129992
C         6.26252802709084   10.35123498410803    5.63702948261286
C         6.40844416290363   10.81266386329269    6.98198883348013
C         7.66813405753216   10.84703694862456    7.55112067770565
C         8.80822559519114   10.41132173612830    6.88291356074122
C         8.64097480745524    9.86624230372013    5.61389982044125
C         7.41261093906943    9.78406589474753    4.99102626121197
C         5.26009730201959   11.31169286458406    7.76678175063619
C        10.15908206625982   10.49175696439511    7.48699815819438
C         7.34725523788385    9.08603460351103    3.68321059954777
C         3.50947338443920   13.79542248312288    8.35153433451777
C         6.57961956059969   14.05932662774814    8.82507887066612
C         5.50297431101090   13.84415043223931    5.95663605219789
C         3.17193662307433   10.29351275806230    9.78406528012790
C         5.87393705524053   11.20580203707696   10.95546036765646
C         5.69249635778158    8.60406403798840    9.19502097105756
C        10.29579400622919   12.96423140950141    9.54729375115029
C        12.57032445140327   12.43893198133554    7.52368759033502
C         9.82446068663620   13.41807852010219    6.48647206396253
C         9.32158211602612    9.58802106689590   10.50308072406909
C        12.19946847337771    9.20593744972532    9.44230313436347
C         9.85737618309573    7.52340675207692    8.26889284113841
C         8.10141363494145   12.00602212047724    2.87848901317566
C         9.89851648890022    9.71082813113425    1.84661593947904
C         6.99700169549460   10.00593056277994    0.75150288647336
C         6.83526519420371    6.51975665277775    5.24459593541660
C         9.73839723581155    6.90663890587638    4.23760937676348
C         7.47359702263572    6.40292674649631    2.18005870521152
C         0.90446541524503    9.85892875535860    3.10281218030200
C         3.48279806675688    9.35506457108458    2.18556728402211
C         3.98167533664923   12.20479412745621    2.11931133012199
C         1.39363785798640   12.64855856830498    3.03597352035179
C         1.80447967226033   11.07273914373945    0.71175433390341
H         5.31737084940019   10.40007693734763    3.77769605573596
H         7.76685348785516   11.23682575569500    8.55052151749810
H         9.50180805600186    9.48299833424064    5.08956588938464
H         4.34698937346249   11.04042416947348    7.23765342437049
H        10.86499887683459   10.12697809012741    6.73301607762250
H         6.30607589659976    8.95184807898927    3.38974867433965
H         3.36270552245382   14.85800020344458    8.18652735862858
H         2.72458157754227   13.26886406300400    7.81749498627504
H         3.37429391315560   13.60906909549390    9.41169265700523
H         7.57666091661091   13.82105553321616    8.47201348939691
H         6.47358392344969   15.13950402695006    8.78996655490643
H         6.50958075130526   13.76239653183481    9.86476477897885
H         6.37018466096527   13.37154682633235    5.50454310202333
H         4.64409431900499   13.61330007794665    5.33117139474350
H         5.65597722390933   14.91834747528738    5.91478423348760
H         2.74721388731773   11.27574563008977    9.95917561170288
H         2.64265320556848    9.85586834701899    8.94348158780800
H         2.95951186548090    9.68546654901866   10.65784811480352
H         5.84966716898598   10.53355467516389   11.80801532675424
H         6.91043134764174   11.47226706672642   10.78317438374785
H         5.34288878447676   12.10816845082268   11.24128093472554
H         5.64640106308713    8.02718035770814   10.11369255427230
H         5.09018308540639    8.08675170614415    8.45410771207700
H         6.71910680586688    8.58757108807213    8.84322454899012
H        10.92243609867536   12.47846317119559   10.28841192797326
H        10.48835975947221   14.03108393353984    9.61014281191896
H         9.26114465546732   12.80608109251842    9.83033515474229
H        13.11649046628669   11.82277987197999    8.22937114339322
H        12.85074226358954   12.11997401650687    6.52463227860990
H        12.91629214125084   13.46032619632607    7.64694622187215
H         9.98756517830399   14.47379576814792    6.68050401631270
H        10.20919359411345   13.20839780826998    5.49260391298879
H         8.75255077583357   13.24853570742965    6.46218263064550
H         9.49963368489062   10.57957252849585   10.90290153327813
H         8.25883575660675    9.48707289369274   10.31545012207122
H         9.58175565080722    8.87599113282703   11.28127262638654
H        12.40218513249421    8.36927787684663   10.10325110786610
H        12.85089182262318    9.10491847485094    8.58037794651380
H        12.48529806669266   10.11085251100644    9.96809537367168
H         8.91261824708928    7.56994381254365    7.73536633310855
H        10.60196714177609    7.13262546927622    7.58194298374460
H         9.74630329256201    6.79922911215208    9.06993270616112
H         8.65912826862603   12.12516610603938    3.80257519345858
H         8.54606463602035   12.66136353468639    2.13563151987377
H         7.09255231819345   12.36329937824054    3.05977234544051
H         9.96468247035687    8.68789387788601    1.49193681688010
H        10.27433976784385   10.35428464374890    1.05722782961870
H        10.56727319518649    9.81660551953873    2.69458226662195
H         6.00393960738398   10.41265705633293    0.92509085721962
H         7.41567340550222   10.53380335159879   -0.09953135137822
H         6.87606563924810    8.96603539130495    0.46608645188553
H         6.96495289667554    7.08383691534265    6.16396568122456
H         5.78009998680452    6.55476511563084    4.99087718881581
H         7.08766711085521    5.48489477849479    5.45362391273744
H         9.95149551145282    5.84903675756429    4.11240808920154
H        10.41248205893949    7.45126389290960    3.58635715643134
H         9.97843335450057    7.16549643167282    5.26289108925939
H         6.44384744649966    6.59490642088537    1.89719914689646
H         8.10789150993942    6.75692723347556    1.37371728674575
H         7.59807337005313    5.32665787163327    2.24486639073521

