52
CSD_code = ZUDHIP | q = 1 | S = 0 | Stoichiometry = C18H27N3O3Tc(1+) | MND = 6
Tc        4.02421113592777   11.26867622852343   11.96271341925198
C         5.41163749083833   12.54149400646115   12.48740456525890
O         6.21227089334572   13.28663667522429   12.80391816575531
C         4.02601690939363   10.49821335713916   13.75965495475027
O         4.02704357245012   10.06178941050717   14.81109844346340
C         4.02001932980596   12.04896227807029   10.08514481100920
N         4.01574275049310   12.52243149993673    9.02699033671158
C         4.00785342119732   13.13787087912700    7.75724326699647
C         3.99419078007603   14.65295987403873    7.97323993617284
C         5.27290828359375   12.69801965011335    7.01638368921660
C         5.47008833589576    9.95174048212876   11.40317911926890
N         6.32730388886309    9.22533841355603   11.11808585950008
C         7.39797832032580    8.35985289438786   10.80857756490669
C         6.85584140083254    7.24199881322045    9.91484480238341
C         8.46454394948243    9.18106134425779   10.07973891187476
C         7.93999587804324    7.79891069962335   12.12548977995032
H         3.98744180191644   15.15609594469753    7.01075203218928
H         4.87604969021886   14.97038149195755    8.52485035569612
H         5.29734054417445   13.16143065738185    6.03452591415690
H         5.28865906605402   11.61757724714606    6.89050380675775
H         6.16244226513067   13.00011680733275    7.56444989403049
H         6.44115475477955    7.65078443877483    8.99606979313525
H         6.07938671185961    6.68129641908475   10.43024226850067
H         7.66171384636178    6.56084325714855    9.65801526940609
H         8.06544044297502    9.59949305086533    9.15839885227616
H         9.30796823958205    8.54256724659592    9.83381609508654
H         8.81780211372354    9.99495586722682   10.70867883489032
H         8.76710023614402    7.12590096207347   11.91924295364483
H         7.16733413601679    7.24709222756748   12.65593021683701
H         8.29715957159259    8.60143200485549   12.76661611331543
C         2.63868696267984   12.54259878620826   12.48961674216153
O         1.83917774812172   13.28851069175348   12.80723049736646
H         3.10895734918225   14.95395188128183    8.52866398649559
C         2.74815406818451   12.67470317303666    7.02136365306677
H         2.71122995892009   13.13758439488985    6.03964089698900
H         2.75194737785886   11.59414902719863    6.89545644635677
H         1.85537969542663   12.96030256665821    7.57302496735028
C         2.57555401805827    9.95442192414962   11.40382330554766
N         1.71731543375219    9.23041966408603   11.11550432579449
C         0.64461375115533    8.36886385478501   10.80191497424805
C         1.18851934818933    7.24143197135393    9.92136007482040
H         1.61446645852627    7.64116866998826    9.00374777758452
H         1.95657871640670    6.67979044489834   10.44816968117391
H         0.38106739862049    6.56325664746446    9.66158700310075
C        -0.41013395580181    9.19089034114866   10.05695913473632
H         0.00007250752586    9.59992283962526    9.13627574432903
H        -1.25502520457104    8.55554446731169    9.80792700958032
H        -0.76439014826235   10.01156555643802   10.67645978143814
C         0.08663149057983    7.82043556436708   12.11741499273639
H        -0.74242590657047    7.15082565556889   11.90792991438816
H         0.85088747857144    7.26787196689946   12.65913155512053
H        -0.27190430779570    8.62956578185581   12.74939750923373

