92
CSD_code = ZUDHUB | q = 1 | S = 0 | Stoichiometry = C41H44NiOP3S2(1+) | MND = 5
Ni       -0.13297879843478    4.93746259802022   13.76857196215568
S         1.78896078440404    5.26428546119897   15.08891248915478
S         0.16705923930152    2.93123495290876   14.71790284010745
P        -0.84265938237117    4.11826619375501   11.83742686831908
P        -0.17509351073938    6.87530205013361   12.83538498820250
P        -1.90687064118392    5.65925178633945   15.17087362184493
O         2.04530641796708    2.99506501816865   16.46387406977692
C        -1.40676997962437    5.53685910831487   10.78572418800845
C        -0.45338447835540    6.70336375816078   11.01664724787418
C        -1.70930501925283    7.74975944212034   13.38003856815780
C        -1.98789280335604    7.48734710785472   14.85721344913038
C        -2.03246338519361    5.61520001392102   16.98135413612994
C        -0.91862798762775    6.06089686222210   17.69043169736178
C        -0.91995785586513    6.04015054581241   19.07142410089807
C        -2.02973228148656    5.56259494736666   19.75147229662318
C        -3.13289986404157    5.10665267011643   19.04881737104859
C        -3.13847287904723    5.12586779102574   17.66490518565156
C        -3.49616931002834    4.98508028454186   14.59741057140180
C        -4.58772499140004    5.73212148114407   14.17216030183730
C        -5.73717621241392    5.08804567877556   13.74586792842423
C        -5.80787518215199    3.70497326529766   13.74523461585645
C        -4.72020189595592    2.95492010684583   14.16442550127595
C        -3.56654300922367    3.59190900128512   14.57654127629073
C         0.60108395227706    3.52204245141793   10.91275059055249
C         1.86216279432431    3.82405592246820   11.41532652818886
C         2.99603892948823    3.42753688585778   10.73107653345021
C         2.86771753890321    2.72255938470656    9.54491012531589
C         1.61092311377056    2.41541688772976    9.04473912228591
C         0.47321266672604    2.81215414783660    9.72336134909142
C        -2.07588521244824    2.81500203295064   11.61859096323445
C        -1.70837086252114    1.53555372346825   12.03440157890843
C        -2.59772496496012    0.48579982243269   11.91596393212233
C        -3.86050755047754    0.70587430584845   11.38701281830862
C        -4.23238181067369    1.97814017935772   10.98490875717744
C        -3.34954106231117    3.03660831651868   11.10685648209403
C         1.19708005973342    8.04284494531670   12.99883803175651
C         2.40071683388407    7.69862822559540   12.38441172486499
C         3.50297661409137    8.52144374944726   12.50681948684878
C         3.41954954724235    9.68294939650272   13.25939603431420
C         2.23367442094857   10.01443251908959   13.89333154259894
C         1.12440901892041    9.19578765435413   13.77366298783745
C         1.42523469563847    3.68535446429404   15.54725685323802
C         3.12478143792157    3.58110749282868   17.21056645588106
C         2.57374724037283    4.31675010411381   18.42992363685138
C         3.72446926868731    4.86375748676269   19.26903884481809
C         4.66109580563412    3.73720503033252   19.69413001007084
C         5.20102400997967    3.00347874591533   18.47048269093845
C         4.05506533879667    2.44914269157167   17.62895408413052
H        -0.05282736676543    6.42151809052741   17.14695510733981
H        -0.05778599768389    6.39014039969501   19.61976979382542
H        -2.03137925101957    5.54151512732293   20.83047098435549
H        -3.99432106435664    4.73199545448753   19.58077580411699
H        -3.99777076789685    4.76540081785700   17.11838878619052
H        -4.55921934149725    6.81168647610651   14.17794081148913
H        -6.58501219325546    5.67162098171699   13.41887432226399
H        -6.71077087754173    3.21216351162419   13.41876881476990
H        -4.77064498405225    1.87683417876120   14.16450279018309
H        -2.70480846143833    3.01631795397439   14.89146004868319
H         1.93910755919880    4.36773651903218   12.35826525669850
H         3.97581698850549    3.65967238542238   11.12123829445803
H         3.74987312028568    2.40568306070554    9.01003351547385
H         1.51889226289857    1.86180197573325    8.12277298389423
H        -0.50890093798986    2.56791994376899    9.34306818320001
H        -0.72103837427530    1.37595992314524   12.44680637387803
H        -2.30835600574104   -0.50395777096645   12.23480794766228
H        -4.55568659159295   -0.11412131219416   11.29094698664259
H        -5.21613088452707    2.14950032777400   10.57486121479167
H        -3.65801536009599    4.02337066472641   10.79722045756877
H         2.46936041528750    6.77942851461476   11.81766304886961
H         4.43068139089277    8.25524506466950   12.02350815001818
H         4.28167760265894   10.32402251217616   13.35980663666710
H         2.17195823771932   10.91284619454141   14.48864071641672
H         0.21057541355598    9.46245470276456   14.28306353439137
H        -2.41966514228574    5.80540294439432   11.09639924827166
H        -1.42993713936690    5.23146398273644    9.73615668581180
H         0.51252496213429    6.50035675066880   10.54534623580490
H        -0.84259790137881    7.64372255368000   10.61613862086182
H        -2.52659328834326    7.34023738154773   12.77809908529786
H        -1.61764180545994    8.81645981387856   13.15548839938590
H        -1.20756027345455    7.93338633658188   15.48203910305785
H        -2.94980106564896    7.89825093776956   15.17344930529315
H         3.65431660748785    4.28911653716448   16.55737426843895
H         1.97707591292364    3.61679659156847   19.01889841847244
H         1.92031163627414    5.12863523920096   18.10389151420721
H         3.32248284593603    5.36823914618269   20.14862463558459
H         4.28019168962684    5.59996519606863   18.68374279001462
H         4.11893353922455    3.03412606557520   20.32950367598821
H         5.48868352584744    4.14509995712619   20.27548884166795
H         5.84947242250087    2.18386917260969   18.78106153195489
H         5.79607460757928    3.69165759024799   17.86575425289012
H         4.43950193608677    1.94469824694304   16.74082216029722
H         3.48017360114441    1.72402316584974   18.20738422240484

