85
CSD_code = ZUDJOZ | q = 0 | S = 0 | Stoichiometry = C39H35BFeN6O3 | MND = 5
Fe       10.62084774437122   23.38510574635142    9.35990002973834
C        13.51158989901748   20.16968931498135   11.11574693957879
H        14.54668745489720   20.23248853324599   10.81609202146927
C        10.59407780083745   18.72627875391269    8.35359967048872
C         8.53192166040660   24.04271446789756   11.81324427624618
H         9.55061840796577   23.71129916818111   11.97899960616678
C        10.84475860240323   19.99239777655185   11.84257807147906
H         9.80351908453938   19.92599170260211   12.12267139411645
C        12.99886566716491   18.97611780178872   11.58526917810863
H        13.64038380856569   18.11121164490197   11.66497270924430
C         8.32034770461099   25.20352022176549   11.07409066733084
C         6.17466685644091   23.81215014707551   12.16336943480055
H         5.33919304796195   23.26358324922404   12.57198857064132
C         7.02210137599578   25.67399935910199   10.90808462145947
H         6.85086146882903   26.57036518412454   10.33060132294605
C        12.69574879755067   21.29447337507277   11.00507420953261
C        12.94160386219472   18.26798682587629    8.09319984453632
H        13.90811290197677   18.54698591995467    7.69924968245559
C        10.46860655990946   17.56686226311459    9.10648947772130
H         9.50264614935009   17.29329738939072    9.50646208132146
C        11.84186580750004   19.06908499103168    7.84644191818227
H        11.94778784500775   19.97037207607298    7.26267657962239
C         7.46634724483623   23.34836121735732   12.35042276233330
H         7.63922550102800   22.44306939251340   12.91475829593381
C         5.95715612690779   24.97775314474578   11.44842727148915
H         4.94961483576990   25.33908939331375   11.30192882217892
C        11.35928766361157   21.19022123207483   11.38799572330592
H        10.72400988379939   22.07304126857955   11.34010430801629
C        11.56596242614295   16.75646820424497    9.33864390592992
H        11.45274841096887   15.85050863004828    9.91636805474415
C        12.80596203340926   17.10643133999240    8.83423448658568
H        13.66353576419275   16.47514061252402    9.01605733787810
C        11.66498818118708   18.88078855313289   11.94471220235346
H        11.26590966241092   17.94487257250960   12.30484027093641
C        15.60382668420868   25.29028620934519    9.87619538739270
H        15.81312413917163   25.46790811092315    8.82275168172395
H        16.50338781070358   24.91255424205399   10.35424310425061
H        15.33364722313392   26.24153297739488   10.33049092619581
C        11.69450898527513   28.61740803491361    9.43542083527907
H        12.67536755927844   28.61031852503284    9.90707778714666
H        11.14524982063142   29.49077096610337    9.77584655722847
H        11.83798560934042   28.68860929926135    8.35872002979957
C        13.67924569047458   26.09462340552448    5.82828487701833
H        13.42782804479770   27.11635361287330    6.10580110928527
H        13.83305876265320   26.04883472119820    4.75369204894334
H        14.60820209578250   25.82760767806178    6.32898178277061
C         7.59214731723552   22.11808375061158    5.71637465665624
H         6.55865784557274   22.32275213759265    5.94786799213429
C         8.57725314291146   22.98758666697609    6.14884452193364
H         8.32065409138846   23.87486262059608    6.70583080229087
C        10.24878038667851   21.59278186937912    5.12985081054465
H        11.28590400802206   21.39279937913603    4.90072930480137
C         9.91505623390618   22.72314364424508    5.87012047964039
C         7.93093529460207   20.98490211304972    4.99551507237771
H         7.16076304089824   20.30565451190483    4.66098427877629
C         9.26045207229567   20.72443719416055    4.70088584601116
H         9.52781894219689   19.84405461737364    4.13319828656586
C         8.33013167091071   21.87588360084937    8.84527173026349
C         9.57917750759414   21.01561959400569    8.55147098359397
O        10.66903290957582   21.58244031328825    8.69029089098137
O         8.65778446208034   23.08594162239824    9.04573076391496
O         7.22065132704114   21.37072699768207    8.86863813406311
C         9.40307361172419   19.60142750511408    8.09315164376938
H         8.49359019488581   19.21689580961819    8.56130205789006
H         9.20586160631045   19.65731993374024    7.01487532077307
B        12.63093424860373   25.66040279290843    8.77929409464149
H        13.39856187375439   26.53217418842824    8.58914182425818
N        11.37859603190598   26.14082429905949    9.51886116020112
N        10.48256775620477   25.23885292037433    9.94197803107406
N        12.14339200382672   25.01135615244013    7.47525026465502
N        12.47436810451502   23.46435597562240    9.88410275652406
N        13.24573905746281   24.51603832740018    9.59643534741140
N        11.15512490032429   24.10373098759220    7.51742855931507
C        12.58879889149164   25.16097471344597    6.21381348720316
C        10.93619915782646   27.38650613643260    9.77974390917993
C        14.53299893972745   23.05720828589488   10.62511286668917
C        14.50329468779151   24.30434664690601   10.03363067250195
C         9.45493198082134   25.89615456406197   10.48144912658537
C        13.22604062879006   22.55556390443053   10.51394366050333
C        10.95637024950920   23.66777704589912    6.27465014980509
C         9.70434208291606   27.27270700851033   10.39532205680182
C        11.85564500499555   24.30962045581169    5.41159221894385
H        11.93271543796319   24.17837331630047    4.35146414565652
H         9.08000695987403   28.06636632720229   10.75163268509959
H        15.37125366868193   22.58352281359353   11.09351753009036

