21
CSD_code = ZUDNIV | q = 0 | S = 0 | Stoichiometry = C8H6O5SW | MND = 6
W         4.23742843248250    4.01338636029920    1.48698752050999
S         5.35123967081516    6.10948006635557    0.35739195969560
O         4.00811865300602    5.63854143442915    4.16047291804526
O         4.49436866454219    2.44764949222225   -1.21894960379437
O         1.42365919017974    5.08219087946418    0.59642349714581
O         7.03639160035652    2.92604811740935    2.38430226105003
O         2.89382936194818    1.53600072449421    2.82826942128856
C         4.08922210681179    5.05053379762474    3.18760326819797
C         4.39990536879842    3.02065068203150   -0.23814873586467
C         2.45142285482677    4.71184221332151    0.91182176490873
C         6.02409890848887    3.33539633925020    2.04938052476605
C         3.38751347363260    2.44221565412601    2.33725843413557
C         6.73278629856575    6.62794953233853    1.45595884698477
C         7.77785193632285    5.88559272811283    0.61930068108737
C         6.84413432351933    5.50794786203163   -0.53334665102998
H         6.83000513679375    7.71197022702936    1.43456005549996
H         6.61243320064611    6.28612656680667    2.48095462049388
H         8.61814271277444    6.50868747452945    0.31551752500775
H         8.17039278474345    5.01008435132720    1.13399283780877
H         6.79529715043043    4.45038623170119   -0.78006142951307
H         6.99035817031557    6.09461926509624   -1.43858971642283

