44
CSD_code = ZUDNIX | q = 0 | S = 0 | Stoichiometry = C17H18MoN2O6 | MND = 6
Mo       -1.34531333180382   -3.05270066142309    8.22938540380686
O        -1.32480317505482   -4.72391318885732    7.26810479875496
O        -0.39831531030693   -1.88144281646795    9.25986846306756
O        -0.16520360219022    0.50736472797603   10.31124705495757
O         1.01796628381344   -3.15157553675945    7.03919607519382
H         0.52509249258524   -2.90838996720687    6.23899957094429
O        -2.69976334198111   -3.28630562869175    9.13843390326251
O        -1.52582850230415   -2.17684785799691    6.84679462176472
N        -0.21287318106516   -5.72193766435926    8.96424547493930
N        -0.12956610302470   -4.43831148902184    9.39409268799114
C        -1.94313786217920   -7.16128466697109    6.09275692372552
H        -2.34680101013289   -6.24105980581965    5.69276429842352
C        -2.20901310838749   -8.38107163299938    5.50075575258928
H        -2.82892423631125   -8.42830835389674    4.61783384871809
C        -1.68180121870605   -9.54403443687557    6.04063692643140
H        -1.89184798263852  -10.49667338088472    5.57702722277878
C        -0.88811172895550   -9.48782081857251    7.17694335819723
H        -0.48184216669843  -10.39721117524505    7.59452390611800
C        -0.61901973458793   -8.27316341400984    7.77780935195085
H        -0.00702035275407   -8.20660193909735    8.66267413801908
C        -1.14501933373427   -7.10136880015504    7.23540897998957
C        -0.88391568932790   -5.79392978732927    7.84943026203429
C         0.42364348730143   -4.24413145441675   10.54635686125586
H         0.78300945057193   -5.11485551347521   11.09576548619849
C         0.56837243039074   -2.95508578191262   11.14618485700979
C         0.12981298390984   -1.80272465629723   10.45999232032906
C         0.27804419736628   -0.52772863066340   11.07070063291055
C         0.83813146969236   -0.43355717260723   12.33058839358783
H         0.95061550594724    0.52509219026575   12.81128313487566
C         1.26888123625844   -1.58073033355958   12.99957499189233
H         1.70363753421087   -1.48050901480631   13.98184139503761
C         1.14339786785448   -2.81854410706183   12.42343578289826
H         1.47556932316312   -3.70373899616322   12.94358132562795
C        -0.15897455596445    1.79896490422510   10.87018477337261
H        -0.76091672439389    1.84348081409416   11.78292775145264
H        -0.60055960375696    2.44633069594258   10.11484376111253
H         0.85971334154845    2.13733032111450   11.08778277379594
C         2.00423408475704   -2.14637859780521    7.24438174344804
H         2.85468632457380   -2.35783444778229    6.57791616412448
H         2.34061233604439   -2.25397530943409    8.28094031766039
C         1.47589934624973   -0.74301204955876    6.99045829733896
H         1.19690584129755   -0.62856555760300    5.94444903810616
H         2.24070061793991   -0.00863183345174    7.23053108141320
H         0.59304570078910   -0.55630717438830    7.60474609289321

