41
CSD_code = ZUDNOB | q = 0 | S = 0 | Stoichiometry = C14H18O5S3W | MND = 6
W        11.21085362830493    2.68800793597588    3.42433771636628
S        13.10951461453981    2.43987970364634    5.25708301326407
S        16.86836925998710    0.10968654871301    3.91742175276477
S        17.59719237429395    4.14786819181382    4.20265991609087
O        13.02911993126736    1.45555093734983    1.18618666525191
O        12.04697030563022    5.63668201663565    2.76213604986410
O         9.34233589225829    3.86808232787261    5.65245846741370
O        10.20988090649859   -0.19533825133688    4.14566669077048
O         8.91166859764630    2.94791742035863    1.33229662074748
C        13.87452935296820    0.82151335850633    4.89406497367620
C        14.94899506197386    0.44258670379625    5.90489044685216
C        15.91084004093169   -0.57826763918337    5.30992280489141
C        18.13641750647928    1.03973329704264    4.85841139110780
C        19.06664591555264    1.80195535873073    3.92928424338163
C        18.34308172319070    2.86771061774801    3.12051858972160
C        16.10357777307489    4.55118780090138    3.23326693116568
C        14.98965383906796    3.53212095543116    3.43580391853848
C        14.45880440296845    3.60317880809150    4.85585994568610
C        12.38914297813374    1.91542139075695    2.01229237650222
C        11.78126652752508    4.55286826057726    3.00104713061935
C        10.03716163193065    3.43905871877651    4.86009066850599
C        10.59642458098814    0.84617462910869    3.88963681651665
C         9.75707452421465    2.85310819928782    2.09614302862082
H        15.51033450263443    1.32979925068888    6.20372156430735
H        14.49010372936196    0.02832143555453    6.80455375713792
H        15.36813984277867   -1.42777711522769    4.89646541039851
H        16.62258647687041   -0.93551171515368    6.05372376982935
H        17.62365005414406    1.73533958109380    5.52278746137283
H        18.69584720378640    0.31237902299162    5.44781533010993
H        19.84673028123764    2.27037742207362    4.53406216629608
H        19.54125335255426    1.10562372504605    3.23392391291039
H        17.53767750039137    2.41745943515244    2.54279686072342
H        19.03726583148338    3.37242115560443    2.44806629813367
H        15.79548501419655    5.53981353283454    3.57179531913450
H        16.39951429068498    4.60981388306926    2.18657451053960
H        14.18570498434647    3.73939416048397    2.72323221697663
H        15.38244770575518    2.53429185976150    3.22713411850508
H        14.02572037497542    4.58406850892020    5.05874592520988
H        15.26441176875414    3.43039505463167    5.57115385864864
H        13.05235237689117    0.10599684254345    4.91032617269450
H        14.29035333971965    0.85480666932701    3.88674118875241

