62
CSD_code = ZUDNET | q = 0 | S = 0 | Stoichiometry = C28H26FN3NiO3 | MND = 4
Ni        3.27356629900423    6.48389779823386    9.76300413201932
F         7.00053114432711    8.97544648151001    8.13050051144273
O         4.72017789152509    4.50833807103289    6.74220170396055
O         3.06134555420223    7.95620578499376   10.88636878930317
O         2.67880746716870    8.50324776765366   13.00444085158878
N         3.88878768115703    7.62658585555957    8.24372381763301
N         3.55013252440570    4.98743360117945    8.68507099746479
N         2.83845481580058    5.45707550890597   11.22035110196476
C         4.66609536492638    8.83419763777479    8.57964187542809
H         4.74562317903194    9.48883432127591    7.70269863425179
H         4.18428923785564    9.37309171442843    9.39614163691277
C         6.07396118407275    8.34737950538119    8.94011162958668
H         6.37080018542898    8.58344575517736    9.96563253029719
C         6.05241968170202    6.84726575712698    8.64169634795990
H         5.83547741330609    6.28826356581939    9.56260553054311
H         6.99532386676508    6.50183065009725    8.22338946486097
C         4.87783125175204    6.69809603089925    7.67062783755604
H         5.17868034819376    7.00436121995369    6.65830307978975
C         4.35504736104505    5.25809777201520    7.63048576694143
C         2.82840681799403    3.81866366312362    8.79238439110191
C         2.66588149588297    2.93577709543693    7.71230887007495
H         3.16382259589409    3.15697470092213    6.78457335144637
C         1.88483694292739    1.80834682970135    7.80753224322454
H         1.77684975170780    1.16612297744136    6.94615177634220
C         1.23195520394581    1.49698967994299    8.99395405985832
H         0.61054271085784    0.61775393753428    9.06603944882303
C         1.39428969893248    2.32365184512016   10.07891601146166
H         0.89163124789656    2.08826207544529   11.00511979792490
C         2.18410137029642    3.48077818773264   10.01424270881439
C         2.34151702466732    4.26760785067602   11.22086568538928
C         3.08080567403742    6.18396532078608   12.45705747383668
H         2.40724965393253    5.87313371743140   13.26229392072537
C         2.90374611726298    7.69843627573963   12.12967595273135
C         4.53516241399713    5.98432789488386   12.89152226904491
H         4.71291666582516    4.94801771951115   13.17457360461879
H         4.74921688629759    6.63058856436368   13.73884149418962
H         5.20199640860786    6.24778514632751   12.06704845048158
C         1.94240471667403    3.61940734124680   12.49984583476727
C         0.74641884186556    3.96176079050486   13.12248639549638
H         0.09875809674428    4.69686330960529   12.66703518086815
C         0.39034435376649    3.35798743336141   14.31516683817905
H        -0.53929987706242    3.62643584925747   14.79374418816811
C         1.22468856635327    2.41642252930645   14.89480019777470
H         0.94665973164150    1.95050599407646   15.82795957574285
C         2.41429505840167    2.07205952688923   14.27558140957163
H         3.06532335789073    1.33623637791316   14.72311270838560
C         2.77331094356770    2.66811248322055   13.07941804754676
H         3.69639573838028    2.39694689933187   12.58814711387528
C         2.78058638339101    7.95876861893113    7.32922737040526
H         2.33836959757814    8.89579182710898    7.68024313338542
H         3.16675462305156    8.10469326111095    6.31163149789251
C         1.72820112940330    6.88028431446381    7.35487247598187
C         1.54346875299185    6.01103052285045    6.29078522838670
H         2.13715245278508    6.12189318439230    5.39508258898459
C         0.60781584276340    4.99252956472264    6.37594516065734
H         0.47195505015400    4.32003160896632    5.54278456959318
C        -0.14213101205647    4.82961718386321    7.52677605669761
H        -0.86014031779731    4.02647859917960    7.59438936107129
C         0.02764534002594    5.69953576103393    8.59208912847865
H        -0.57384265458023    5.58568491815855    9.48192544184611
C         0.95630654678840    6.72624981248524    8.51213749035370
H         1.02327760464509    7.46469400688003    9.31171525629521

