68
CSD_code = ZUDWOK | q = 0 | S = 0 | Stoichiometry = C25H37AsClHfNSi2 | MND = 13
Hf       -3.28217132219948    5.22676565693175   15.56982912892151
As       -5.56758261720853    4.67838298608828   18.90014749473481
Si       -7.65197299124551    4.76217666869923   17.73385512268372
Si       -5.59118437316057    6.76194019291740   20.05131753553196
N        -3.24104572326651    5.73155489831346   17.56716581962694
C        -4.42230835843179    5.20995338042666   17.42403604683647
Cl       -1.04011004500199    5.96322301302361   15.58961454699980
C        -1.94325623708127    2.96989649985658   15.87203300730381
C        -2.89818371330481    2.64446920010769   16.84172697532856
C        -4.17088470049338    2.65865635964036   16.25165162148689
C        -4.02841865734580    3.01551524456487   14.89873252657896
C        -2.62950523230613    3.21754651461582   14.64876295760359
C        -0.45568096810395    2.88591201089163   16.04998330592605
C        -3.66677397637699    7.54925947362507   14.69805942990444
C        -4.92144057372722    7.08948201810043   15.14636445969560
C        -5.30917732427960    5.99093096528855   14.34344049855276
C        -4.29249806463900    5.77533934156510   13.38731546334401
C        -3.27745195242297    6.73274151583640   13.60987729479359
C        -2.93977867640935    8.76841596226893   15.18840321764375
C        -2.40127117466443    5.86315601689796   18.67900611204240
C        -1.58324624367827    6.99202019255708   18.76169998998228
C        -0.67057094670105    7.11022738995774   19.79010473791590
C        -0.54473381937877    6.10229676010204   20.73439151534568
C        -1.34276997516994    4.97390504995763   20.64688878391575
C        -2.27341948170060    4.85338551083614   19.63259317389615
C        -7.68933255514438    3.50327937695376   16.28965662861458
C        -8.25428036434522    6.44201115984739   17.02763802334693
C        -8.95555151211193    4.14795190174710   18.99747955960491
C        -5.18625949720020    8.26708102749605   18.94021238791386
C        -4.34741858625521    6.71204243595120   21.50595285471738
C        -7.31220654954156    7.02562972466779   20.84505623494290
H        -2.67820939772121    2.33811207416334   17.85215789471905
H        -5.08572919942854    2.35554403121650   16.73921506260647
H        -4.79301741154614    2.91883162562331   14.13920174730867
H        -2.15755564942695    3.25886951364038   13.67122140173966
H        -0.14720026983088    1.83933956982970   16.09461074936072
H        -0.14274970365251    3.36810364143923   16.97573060319030
H         0.06546601266066    3.36107338910378   15.22208171867118
H        -5.53345132952766    7.57655762412630   15.89219991387086
H        -6.27866621914938    5.51573678597694   14.35325871174107
H        -4.35655093753254    5.11390752384462   12.53337850264417
H        -2.41470182243300    6.90322112027835   12.98032785765289
H        -3.36148681986637    9.11615408267236   16.13066453648994
H        -3.02710886204297    9.57803998194366   14.46136175488068
H        -1.87910391895141    8.55931229282307   15.32693333616897
H        -1.66993204147643    7.76029714513490   18.00741201898051
H        -0.04546842552898    7.98853217386248   19.85118278530509
H         0.17808642394400    6.19375351145276   21.53090996334906
H        -1.24080025005330    4.18090642029522   21.37293042185460
H        -2.88372089446752    3.96148579883792   19.55613999509608
H        -6.85680092435756    3.65558972290405   15.60987218541850
H        -8.60778375114115    3.58549315623189   15.71578739964443
H        -7.62837929046191    2.48505511406666   16.66383825300215
H        -9.30692530859029    6.39593230199988   16.76421086947241
H        -7.70743270298809    6.71478903816169   16.13105033167068
H        -8.13384908000651    7.24659369079783   17.74675921803869
H        -9.90249673931341    3.91194932939824   18.52322521433875
H        -9.14788305988582    4.89043877587653   19.76470110337721
H        -8.59682280320912    3.24930749766465   19.49434482858254
H        -4.32900902648905    8.05418010677156   18.30681289229523
H        -4.94550980432719    9.14481648747880   19.53215346734152
H        -6.02100312583405    8.52453493676754   18.29454444043094
H        -4.29959005611358    5.71371028329005   21.93489735434105
H        -4.64181178342734    7.39690653064845   22.29571505237287
H        -3.34504409226637    6.98453403864506   21.19231470119674
H        -7.57704047897904    6.16657144726321   21.45495787120012
H        -8.09310924333445    7.15995551303940   20.10449879234639
H        -7.31402180033275    7.89991527298070   21.48760059355959

