85
CSD_code = ZUDWUQ | q = 0 | S = 0 | Stoichiometry = C24H54As6Ni | MND = 6
Ni       -0.00043456990674    0.00015448480979    0.00013064602415
As        1.11359745350778   -2.21545711624901    0.22470111922052
C         1.56576975471367   -3.11057133523781   -1.56608967729002
C         1.15990151085506   -2.28229253266957   -2.77636365842750
H         1.67889234501565   -1.31798110815050   -2.77482293727417
H         0.07893091412536   -2.10731954745264   -2.77888632562781
H         1.41664255672838   -2.79784361541352   -3.70306919032340
C         3.07105400129813   -3.36012428663999   -1.60299710912930
H         3.62269237499594   -2.41527072012173   -1.59794249593552
H         3.34658956244597   -3.91011222098933   -2.50303629127681
H         3.37970575612370   -3.94630372115990   -0.73517080568131
C         0.85758442193229   -4.46180206313155   -1.61537592906466
H         1.13001020354927   -5.06499234271300   -0.74707610449860
H         1.13975290244183   -5.00957815827128   -2.51473471113176
H        -0.22878912229679   -4.33263990515779   -1.62149641315906
As       -1.36267547206356   -2.07353785613987   -0.22630113406971
As        1.36209377969382    2.07261525427552    0.22539268902272
As       -2.47651683549156    0.14298192684656    0.22588970926124
As       -1.11472004016986    2.21664406555758   -0.22619007838364
As        2.47646280534190   -0.14341606834001   -0.22543249468803
C         3.47658546550711   -0.19919868859176    1.56609764774111
C         2.55655734995392   -0.13648595543679    2.77655369697609
H         1.98098870635615    0.79516176523214    2.77496796758434
H         1.86448296197899   -0.98510240403311    2.77910685900246
H         3.13144866960490   -0.17192108330948    3.70324046570051
C         4.44545307262044    0.97955502792884    1.60282976127241
H         3.90310721179408    1.92976911480166    1.59774833034776
H         5.05954459084118    0.94318707514289    2.50285253507063
H         5.10742348179723    0.95366473691484    0.73500591568407
C         4.29273872908818   -1.48809296789211    1.61537216658470
H         4.95130413439924   -1.55381806319743    0.74706075370195
H         4.90825591733731   -1.51754105335333    2.51469957108454
H         3.63774829564095   -2.36437416120077    1.62160605290342
C         1.91066865454256    2.91120036709550   -1.56598869409758
C         1.39637268680843    2.14572160089226   -2.77641381721423
H         0.30176191375452    2.11304838033425   -2.77484780513561
H         1.78530658629870    1.12207920142397   -2.77897464387504
H         1.71446598965939    2.62584319833037   -3.70313618225344
C         1.37430762546201    4.33966008536761   -1.60299464097619
H         0.28022371223781    4.34504792709071   -1.59790370230389
H         1.71283344292951    4.85328348431487   -2.50304409501249
H         1.72768953455978    4.90004355919168   -0.73518769212422
C         3.43496074884233    2.97357233730412   -1.61545548542261
H         3.82121298903608    3.51112642355583   -0.74722009952171
H         3.76820426559521    3.49183018934977   -2.51484487909702
H         3.86634278285767    1.96818882346972   -1.62161941007087
C        -1.56566775167356    3.11014314585737    1.56599806628324
C        -1.16001657111161    2.28207488495720    2.77654653366733
H        -1.67904760531157    1.31778713383100    2.77495246834344
H        -0.07905868712422    2.10703171417431    2.77910052593584
H        -1.41674478058745    2.79756433279508    3.70331392359124
C        -3.07091952838604    3.35995070541006    1.60312621078651
H        -3.62269276632887    2.41518044320175    1.59800802904837
H        -3.34643510100343    3.90988926206375    2.50321845852753
H        -3.37957178894483    3.94625172136133    0.73538503028456
C        -0.85765806179186    4.46147292356602    1.61568038154907
H        -1.13007496583748    5.06483160191847    0.74750301821126
H        -1.13985516939472    5.00913152192816    2.51511685979239
H         0.22872479868841    4.33242087875436    1.62182765326625
C        -3.47626132368985    0.19924519401838   -1.56600218626953
C        -2.55622024403163    0.13666888375682   -2.77647995308241
H        -1.98050435988327   -0.79488633512417   -2.77490904324454
H        -1.86428625950291    0.98539417162615   -2.77902536103181
H        -3.13102826459608    0.17202065506057   -3.70323586491781
C        -4.44508200083278   -0.97955956258197   -1.60320018133598
H        -3.90267606823474   -1.92974133269678   -1.59818837152081
H        -5.05909072961882   -0.94314241133853   -2.50329635287452
H        -5.10719163506175   -0.95387547155436   -0.73547719055348
C        -4.29262757185965    1.48802302582581   -1.61555257622615
H        -4.95140306242611    1.55365144738513   -0.74739270152207
H        -4.90798160156019    1.51750239761577   -2.51500771204020
H        -3.63772746776481    2.36437566455477   -1.62158428871811
C        -1.91066302598888   -2.91086804261285    1.56596040400508
C        -1.39655073294351   -2.14553751441988    2.77659863517734
H        -0.30194098602541   -2.11279718706318    2.77507914013435
H        -1.78551624550427   -1.12191020262910    2.77913290673505
H        -1.71466901340184   -2.62567777954797    3.70331364967080
C        -1.37436713565507   -4.33935872377503    1.60312383870466
H        -0.28028680497547   -4.34481804061774    1.59812607692841
H        -1.71296256022327   -4.85288932682605    2.50320158445539
H        -1.72768984820621   -4.89986229501083    0.73537535776130
C        -3.43496046523051   -2.97343905468048    1.61542597485859
H        -3.82118460442999   -3.51107172994195    0.74722516901282
H        -3.76819075108913   -3.49167350282722    2.51483427648343
H        -3.86645308094634   -1.96810525084429    1.62153822592014

