75
CSD_code = ZUFJAL | q = 0 | S = 0 | Stoichiometry = C38H28Cl2O4P2Pt | MND = 4
Pt        0.42995887052779    3.70362926919642   11.46689335350163
Cl       -1.13608970587118    5.38686897812702   11.56174209237501
Cl       -0.99089499065838    2.30626999589516   10.38413801325189
P         1.54961898186507    5.37009507523798   12.62005737027685
P         2.12077988354812    2.15103384977322   11.33656534896136
C         1.39484668291622    6.97986450505231   11.79240739313165
C         1.79390401058047    7.01077613712642   10.45657476087629
C         1.72143886843283    8.19802908352400    9.76677736768891
C         1.23845091485271    9.35388372391309   10.34716275157836
C         0.82582400519962    9.30825558991259   11.67059332265641
C         0.90457943835333    8.13036620250051   12.39452123874722
C         2.24869034496595    8.22572749084831    8.23788544644472
O         1.64561759978797    9.04404020731635    7.58174211578104
O         3.14625448030305    7.42279307283394    8.08051251668295
C         3.34362311125272    5.27378890895612   12.96251517567271
C         4.29111349656786    6.00646350276769   12.25685179224886
C         5.63435807038797    5.88099433791726   12.56614953701122
C         6.04514803982656    5.02246710598319   13.57119498484134
C         5.10550647102795    4.28491339444550   14.27368544774552
C         3.76346740169338    4.41058229549395   13.97267978660547
C         0.88856925210574    5.58227297355664   14.29584418107706
C        -0.22338235427488    4.85606073344333   14.70660418082994
C        -0.71672730294066    5.01167422435083   15.98992261872161
C        -0.10279403090800    5.89112101628433   16.86638743112155
C         1.01171795082628    6.61096953303508   16.46319684688631
C         1.51271287716877    6.45602965328202   15.18414302207769
C         1.90808347283547    0.70195600304915   10.25489379160096
C         2.78337287677743    0.44290644346064    9.20364138925821
C         2.56888907639516   -0.69362295056719    8.46052906767777
C         1.54503599729980   -1.57795542405269    8.71060531775713
C         0.68769602476539   -1.31387550101161    9.77314213303914
C         0.87084853470719   -0.18077708731173   10.54005944152641
C         3.62285807043457   -1.02506399341238    7.25541655518644
O         4.75225121637571   -0.90659008016143    7.67049501878854
O         3.03281765072102   -1.32148363792047    6.24663478600592
C         2.54172887875544    1.33425026721277   12.89934138799404
C         1.82838220975810    1.67852976940347   14.04204718870588
C         2.10699283790955    1.06088337599817   15.24780652005365
C         3.09688431273885    0.09333163486914   15.31208661522674
C         3.79094033621151   -0.27220425250041   14.16862908658850
C         3.51116006901563    0.33687929792480   12.95877382160301
C         3.59256313941841    2.96630025325019   10.66930159363537
C         3.33503459401616    3.81457625678471    9.59120012687186
C         4.36591271570102    4.50279165618786    8.98116468744101
C         5.66300894261121    4.33033057390367    9.44220106558014
C         5.92233014364538    3.48506909480437   10.50842900637840
C         4.89033967655590    2.80551554464716   11.13376847826180
H         2.15772282963186    6.11461101002001    9.97256086779974
H         0.43203362640774   10.19983496513179   12.13533493330355
H         3.98860343245073    6.68090463865360   11.47025727756601
H         7.09391445498126    4.92982077247501   13.80942528635374
H         3.02980697772523    3.84884555133963   14.53310327095839
H        -1.58286455697758    4.44941945052680   16.30478090919144
H         1.49112452399854    7.29427774631885   17.14827809127881
H         3.60812551867795    1.10301713709607    8.98062674170177
H        -0.12640005524191   -1.99084581420214    9.98304657093959
H         1.04707672849332    2.42885140668400   13.96525404176290
H         3.31925951730296   -0.38794660029836   16.25247330730372
H         4.02939468408308    0.03245418729729   12.06003636729013
H         4.16171053756602    5.18159289889139    8.16743589037100
H         6.93452658681981    3.35340799180684   10.86037776395331
H         1.17322253589405   10.26346044160870    9.77126619688051
H         0.56565433052100    8.10322897738871   13.41995214274262
H         6.36097739205625    6.46090620608341   12.01774088271591
H         5.41723699871910    3.61429192022492   15.06080153449301
H        -0.71051141088806    4.18299109864359   14.00900938244128
H        -0.49125484379463    6.01668950993191   17.86582941216605
H         2.38983602839711    7.00555692457282   14.86934103430445
H         1.40360639880670   -2.44645056878753    8.08688029492136
H         0.19937086117015    0.04150810219854   11.35871155425589
H         1.55240059316168    1.33070093967983   16.13425978857423
H         4.54757166631891   -1.04069350825403   14.21933020401173
H         2.31203231304163    3.90807031288960    9.23304062148228
H         6.47331465026196    4.86089162776880    8.96642871086220
H         5.09368453624417    2.16598456898246   11.97960174439262

