53
CSD_code = ZUFKIU | q = 0 | S = 0 | Stoichiometry = C20H29ClIrOP | MND = 8
Ir        4.16319345793419    2.88016402638992   18.41202339866498
Cl        2.29511795546948    2.79922905510218   16.96669254588082
P         5.36178074264591    4.00330938659474   16.79136745016687
O         4.22074117291382    5.64959452893870   18.98515773026849
C         6.02389004508162    2.84221516470211   15.55437479982531
C         5.10542784064139    1.99423834531850   14.93989886233702
C         5.52745259231590    1.05686869585983   14.01671977960265
C         6.87362187031110    0.94891849684349   13.70380655300299
C         7.79212202328798    1.78303245619355   14.31729420499776
C         7.37209676641652    2.72534317558672   15.24122507050719
C         4.45785075479512    5.18925949512604   15.72972678297843
C         6.79771537869935    5.01677838555523   17.29572545425937
C         3.51597976851184    4.66720055527227   19.03972653585974
C         2.12298775008925    4.71935846141704   19.61769950695674
C         5.69466238585359    2.05396628082830   19.79231496021916
C         4.46839287821806    2.08204537815622   20.52408970646283
C         3.54984823906558    1.25150570994547   19.83084454763626
C         4.28258648804138    0.53772375396854   18.79546437891722
C         5.58808786599265    1.01154004042928   18.77915370026963
C         6.97742106252091    2.64522609681950   20.28791385796489
C         4.27330198282760    2.79177265835153   21.82823653611238
C         2.17414958714093    0.85218157455493   20.26502026437795
C         3.68466444445428   -0.54954366673924   17.96522544368095
C         6.73319885309113    0.49184148716603   17.97078215536137
H         4.05948411146568    2.07227469172545   15.20216174807909
H         4.80792697449255    0.40432292032950   13.54421561597063
H         7.20690682959875    0.21315235901149   12.98659301469904
H         8.84271815075649    1.69824053681834   14.07879783533701
H         8.10264299525142    3.36530067727601   15.71338965101333
H         3.57671582496499    4.70156403179270   15.31852646066741
H         4.14403534442058    6.02766562596305   16.34837017662186
H         5.10536367766043    5.53600980529371   14.92483279292019
H         6.42656730582180    5.77554673206375   17.98040672028744
H         7.53092969700146    4.40500535875622   17.81433375442152
H         7.25070257898799    5.49362462110514   16.42798196469767
H         1.97320574801936    5.66320431557782   20.13922264789759
H         1.93061722441779    3.88387221398512   20.28211512519152
H         1.42318996715562    4.64657930520406   18.78593255532147
H         7.74884678975285    2.61064716781153   19.52227520214276
H         7.33503190881645    2.08269891408969   21.15311630186950
H         6.83528074552344    3.67988160453201   20.59464054089275
H         4.61471148795562    3.82431618838921   21.77457260891300
H         4.85184905659116    2.28678174349538   22.60430784949115
H         3.22927562768457    2.78985962534597   22.13108672424613
H         1.79610915661083    1.50423620464118   21.04939441145684
H         2.18757829691406   -0.17032328600006   20.64734592377192
H         1.48145234222790    0.88647016063239   19.42516056476313
H         2.76105213554479   -0.20820363937560   17.49829551081407
H         3.44657934294486   -1.41345201703937   18.58860170419539
H         4.36909892884467   -0.86609987223396   17.18145189649500
H         6.38782821891699    0.01940713103017   17.05336695114250
H         7.29130535001907   -0.24788454818433   18.54893528342435
H         7.41890227531337    1.29173188559541   17.69568423694958

