35
CSD_code = ZUFQOG | q = 0 | S = 0 | Stoichiometry = C12H15N3ORuS3 | MND = 8
Ru       16.61255349613971    1.30786628830721   13.68029531031323
S        14.79168265014111    1.81808219859072   15.13348767371448
S        17.34706862196495    3.57263843803583   13.84254492054635
S        15.18785909923228    5.58318484203721   16.66799708470898
O        18.36963102211458    0.12237794693041   15.55664783576034
N        17.63595762240971    0.65178212374643   14.82689777174567
N        14.52190572508227    4.10143861019855   16.51118313293931
N        16.37813377621649    5.37873129113634   15.56961184793450
C        15.19760458755974    3.42331769459188   15.61843765655596
C        16.28914981703666    4.17414145807320   15.06519599852791
C        15.00365666624502    0.99901111681733   12.03966711316023
C        16.02691761917787    1.80074249937843   11.50467087263116
C        17.26834782621056    1.04821974486402   11.56292604832459
C        16.96783948996365   -0.25252205997636   12.07477998569110
C        15.58941453375042   -0.26113432977057   12.45916955828760
C        13.53180556077105    1.26734374863710   12.02821222168577
C        15.88031440362997    3.10509994477428   10.78382729875600
C        18.53580727300594    1.47645476860617   10.89526174059267
C        17.89967632037382   -1.42517872141186   12.10834952994577
C        14.79180551931605   -1.45037379018697   12.89118619372670
H        13.08753428845500    1.05506002133195   13.00018863874896
H        13.32143585729377    2.30407622921660   11.77760905515808
H        13.05454130567900    0.62395842894661   11.28728948762017
H        14.91428661191803    3.56154876758261   10.98581711258177
H        16.65807044544700    3.80646915187456   11.08383858407854
H        15.96921084296448    2.93602427491663    9.70927464495549
H        18.74183465245049    2.52523392717150   11.10047521843798
H        19.38141648375174    0.88455510068910   11.23670636805386
H        18.44016434198134    1.35271532588272    9.81495592742731
H        18.93241215270495   -1.10680381223353   12.23463219473048
H        17.64799296291754   -2.10802137869219   12.91721537226517
H        17.82372724623488   -1.97063511531517   11.16587688876553
H        15.41872984978429   -2.18697728016050   13.38816601954177
H        13.99894239827356   -1.15264448644156   13.57445002117440
H        14.33266892980214   -1.92008296816071   12.01905467091007

