35
CSD_code = ZUFVUT | q = 0 | S = 0 | Stoichiometry = C16H12ClN3NiO2 | MND = 4
Ni        1.96889183421738    2.83854882527043    3.65719922207986
Cl        6.66903178894395    7.59095868245597    3.68139212987546
C         0.31680244781385    3.40540645772694    5.86879121761091
N         2.67301885397682    4.36816081931700    4.48166478335095
N         1.32009137125211    1.24936173274459    2.71905653556953
C        -0.81373930527983    3.05711460752417    6.64832103045763
H        -1.38126455556223    2.19026115261146    6.34405635515178
O         3.34387022633764    2.98391187300247    2.44375207084519
C         2.20745369525336    4.96379103836288    5.54466945491700
C         0.66239323221478    5.27806567524143    7.41238912574917
H         1.24287475062323    6.14222080043873    7.70403518738415
C         5.22946699779637    4.33192967151076    1.89308337968888
H         5.46688827887545    3.71397293889403    1.04145673403435
C        -0.43592173139313    4.90839477378169    8.13961339087676
H        -0.73411415082861    5.47322032261049    9.00943699825072
C         1.96490061199874    0.60466374482345    1.76942484030676
H         2.92941447122928    0.87994529345281    1.38900183204224
C         3.80811217727340    4.82462095019690    3.80102084491645
C         4.59449622036698    5.93141669561016    4.11176398631238
H         4.38509047653154    6.57148709798696    4.95381883892280
C         6.00188227759455    5.42798987671564    2.20632350944434
H         6.85819295310705    5.68301661467426    1.60155366725996
C         1.06639470774056    4.55243318127318    6.27481668870532
C         0.13686000114501    0.59314519707574    2.90175639474513
H        -0.57545108258943    0.92211731619007    3.63126945490729
C         5.68007355845844    6.21448747670170    3.30731791268377
C         4.11684664614586    4.00812682065596    2.68390415096905
C         0.07657508487985   -0.46281039011806    2.04384069134863
H        -0.67964409640888   -1.20328141455238    1.88713785550837
C        -1.17594774827067    3.78678764423421    7.74785901156177
H        -2.04354525971411    3.49490873259384    8.32202803724460
N         1.24192888363624   -0.44076828188089    1.33400322490231
H         1.51019725468544   -1.09184666944545    0.61370215022834
O         0.61011506871249    2.68058149606884    4.84356428724703
H         2.71746405923646    5.84805924624929    5.91977500490173

