34
CSD_code = ZUFWAA | q = 0 | S = 0 | Stoichiometry = C14H12ClMoNO5 | MND = 6
Mo        3.47129373426973    0.07910309142513    4.03749744740634
Cl        7.97075684643067    1.41667285782323    9.21165960905206
O         3.51115015290915   -0.29173546405461    5.89605795766304
N         5.50808303003775    0.73549341008290    4.70286076165044
O         2.93522265617865    1.63569554510038    4.01558509184628
O         2.37217249309119   -1.10147839495212    3.71101497508649
O         4.82216501330082   -2.14687523383661    4.29735962359019
O         4.39178681168839    0.01944258851250    2.43320701920308
C         6.31656596056419    1.43000674968881    3.96965547379357
H         7.12316422759140    1.99842216594512    4.43777021194401
C         4.46857999944397    0.12378711704193    6.69236420491232
C         6.71089394860614    1.06374331130580    6.86456300977605
H         7.61865705419284    1.44524806883334    6.42341581838978
C         6.22238575950039    1.53563820861458    2.55079361746090
C         6.62498726266374    0.93981549384900    8.23862787938078
C         5.62367689691883    0.67288557367971    6.08328145296904
C         6.06778672074871    1.78855390037369   -0.22706763499952
H         6.00812752804952    1.89383564293699   -1.29986560097625
C         5.23287285721873    0.81994548209890    1.82376463762636
C         4.40834457989475    0.03184865587193    8.08745349423428
H         3.51740556329570   -0.37002921409103    8.54495026055620
C         5.18116997195276    0.96427728299754    0.42812199995122
H         4.41513871155467    0.41895061355731   -0.10494457093520
C         7.11752503717361    2.36177031449783    1.84779881711103
H         7.86710908745630    2.90569961070156    2.40444478610954
C         5.48163147008799    0.43885584353797    8.85326734692332
H         5.44492113732493    0.36161391548943    9.92847768098245
C         7.04335351150806    2.48935195361628    0.48243589315235
H         7.73341958751773    3.13154745575742   -0.04197977067665
C         5.29986428974370   -2.75144567602884    3.10382967487194
H         5.41139247259959   -3.83093695040228    3.24909632496138
H         6.27767317300886   -2.31811593912328    2.89012520373417
H         4.62429701209969   -2.56111947817497    2.26403984725630
H         3.92512544137886   -2.48376850267551    4.44933745599428

