54
CSD_code = ZUFZAB | q = 0 | S = 0 | Stoichiometry = C18H30O3P2W | MND = 8
C         2.83789511340907   13.64986114862777   10.64914455234388
H         2.13618400854706   14.05139383396925   11.38152959006170
C         3.11308275312607   12.18980646122095   10.84828436049598
C         4.01387562258187   11.57750849619346    9.90268037297465
C         4.57099614463509   12.47528900750011    8.80065921825430
H         4.23887658281668   12.11520822976137    7.82149962086050
H         5.66166625493682   12.38749216106378    8.82143500061501
C         4.12916582875833   13.92292749662047    9.00426246407532
H         4.58282799802379   14.58448755202975    8.26374513915410
C         4.22627130190951   14.34921570760806   10.49191009494052
C         2.60186985555035   13.94730387212273    9.16067568020370
H         2.03939715011779   13.19936672631276    8.60874222318826
H         2.16300684097234   14.92541314738829    8.98301692957571
C         4.13655866864917   15.86226195290035   10.66973989783099
H         3.31865414121050   16.29512503261650   10.10263580612550
H         5.06302005812886   16.33025377413615   10.34070214820944
H         3.98680934037539   16.10479889824243   11.72034461193426
C         5.39871057895717   13.84829739809991   11.32745733616520
H         5.52869096651316   12.77214227900986   11.26948230970647
H         5.24390443040319   14.11292610157748   12.37242982772405
H         6.31928710613071   14.32037402228977   10.98752204663323
C         2.77866161984380   11.42869696182763   11.99571131111478
H         2.09381716390111   11.88847362815404   12.70357236985017
H         3.60198204396321   10.89787116520788   12.47629273530492
C         1.90019597267084    6.91554816142460   11.08372896657173
H         2.19542053265644    6.07470152496272   11.72102563386937
H         0.80637494191238    6.95382487253857   11.03799258522153
C         2.47255452373008    6.78600739254653    9.67964975255327
H         2.10387891075269    5.89020845726218    9.16926472541469
H         3.56509105755582    6.74022553993301    9.72310346192081
C         4.14792270718680    8.09315181879931   12.36347161750767
H         4.81749198534579    8.14143484493171   11.50587258766337
H         4.16911126399202    7.09664099056422   12.80586013258312
H         4.48409678831993    8.82150060965492   13.10048422402276
C         1.53902033451350    8.48947371468035   13.39816165419070
H         0.48055152863832    8.63001453610836   13.18511641300458
H         1.87872227983413    9.30993424813078   14.02803949262735
H         1.69324777830399    7.54191743771579   13.91484728386480
C         3.21958961593484    8.25905271524787    7.34797318172993
H         4.19928788828836    8.53302837671571    7.73860244182920
H         2.91453029028023    8.99933964262301    6.60853300508822
H         3.25836766760223    7.27117897738867    6.88751661333508
C         0.47260970187429    7.81202247896167    7.89752142805675
H        -0.29350382885262    7.64629407217649    8.65450406838472
H         0.61293526978783    6.91284080440331    7.29715383061640
H         0.15207436488171    8.63630691990980    7.26133475339874
C         1.52049746729705   11.03414752289590    8.43637534624868
C         0.20271669035738   10.23157215682795   10.42592868399362
O         4.40276584241572   10.38570382603244   10.03159847555546
O         1.03810876354537   11.24965687800906    7.40405597630071
O        -0.94936446986633   10.22428080220191   10.55316037328788
P         2.02809472201764    8.30622141409110    8.72950701868179
P         2.45282501318769    8.52476845572433   11.81377113601520
W         2.12897282389415   10.24860575365495   10.12996949045977

