103
CSD_code = ZUGBUA | q = 0 | S = 0 | Stoichiometry = C48H52FeP2 | MND = 8
Fe        9.99580168443445    6.81304789949148   10.32150378048518
P        11.86210318719565    6.22670289127910   11.18718955025292
P         9.25420428812206    4.89880068643884   10.85174411554935
C         9.44171972582766    8.81284742074974    9.90353028786833
C         8.45622710642128    7.88891046079395    9.44473949937555
C         9.05054137361024    7.07271762694166    8.43093983255329
C        10.41708512576754    7.42672613749956    8.33369110224339
C        10.65923186305223    8.50713507818300    9.25001986905773
C         9.17079882916814    9.96438914970677   10.81647800481715
H         8.74883216706445    9.61604193564289   11.75808286061811
H         8.45106729463856   10.64005986217358   10.35252622773426
H        10.08103223241200   10.52108750489216   11.02389838613344
C         7.01794724919228    7.92572977687297    9.84368143757198
H         6.93979646861005    8.18882331449205   10.89570937881886
H         6.54808416366654    6.95470577495842    9.70609901316240
H         6.47074587957816    8.66609335597128    9.25732248529395
C         8.31776374667601    6.15518076686535    7.50566817169088
H         8.78707188050696    5.17492382318410    7.44388477816347
H         8.30410426748087    6.58576845692200    6.50268998344754
H         7.28931920720981    6.02728561596313    7.83136450119107
C        11.38086745162951    6.97046354888133    7.28342113915245
H        12.33773025750000    6.68293545497486    7.71824522074946
H        11.56692519092643    7.77816035810777    6.57279322392879
H        10.98084679314044    6.12220376087738    6.73356322379062
C        11.91974878475414    9.30853304374914    9.30652705193659
H        12.75930947600780    8.72803515024461    8.93260928214792
H        12.14359722281988    9.62282011436561   10.32396481469359
H        11.81930065970759   10.20252074281715    8.68721463076166
C        11.70934463445474    4.53170218198331   11.96215347328666
H        12.05534645249932    3.79493929451549   11.23166042961090
H        12.33605614765371    4.45520682390665   12.85504602025188
C        10.24415648990281    4.26931543568958   12.28829497933176
H         9.95242101170686    4.84186857319010   13.17095347903457
H        10.05143877079013    3.20502416917429   12.46112175536492
C        13.41768395151783    6.04450175485366   10.23545400630269
C        13.62230091127255    4.96421783490934    9.38095006800564
H        12.89914183293473    4.16329277972517    9.33698036371509
C        14.74777044574850    4.89973287815115    8.57966062132150
H        14.89485708330182    4.04894889034291    7.92968928931195
C        15.68058286982140    5.92302126588244    8.60339348102691
H        16.55772981751128    5.87344157468592    7.97526318837327
C        15.47840783032875    7.01265428819754    9.43415289103306
H        16.19826961703957    7.81833748651172    9.45421587509705
C        14.35516529847938    7.07588128343834   10.23789247452140
H        14.20637311776515    7.92846838902068   10.88512174188277
C        12.51077500429165    7.19844436770794   12.59555060049718
C        13.61499093760459    6.78612620231197   13.33672192574674
H        14.13132453904198    5.87139263504963   13.07524318183809
C        14.06614616744243    7.55460417599920   14.39346304133706
H        14.92219579635152    7.23034181676313   14.96826384823638
C        13.42578303744950    8.74164635811000   14.71528102460773
H        13.77989906549419    9.33650503975665   15.54494494251747
C        12.33752296454332    9.16407106542473   13.97056372456793
H        11.83837849175721   10.09027258641930   14.21725653651350
C        11.88455207105448    8.39574018314764   12.91240087830461
H        11.02415765212381    8.69139771351334   12.33305707252212
C         7.52674333977210    4.59583168913965   11.32438041873927
C         7.05926769255041    4.74743573297456   12.62457677086527
H         7.74787315582637    4.97543350635728   13.42239856454028
C         5.70877910169994    4.62027553905754   12.89758543382358
H         5.35519462222019    4.74161819090176   13.91137946549092
C         4.81102968884008    4.34713592026079   11.87922392360272
H         3.75670074265920    4.25388166117910   12.09537717496022
C         5.26854282114793    4.19440770384106   10.58006921111224
H         4.57166320684879    3.97989577491639    9.78207480187348
C         6.61654870864875    4.32258238605918   10.30524736977820
H         6.98106857965220    4.19981033880746    9.29399462562884
C         9.54325415017985    3.47664637728024    9.72522200858158
C        10.41768915952768    3.69345525514779    8.66933636423821
H        10.82805011785534    4.68782779357045    8.55210851256330
C        10.74968235488941    2.66490580126183    7.80568603850361
H        11.43200599517252    2.84155597499190    6.98583516765825
C        10.20119564929404    1.40744360174900    7.99619982788405
H        10.45292220950088    0.59965571408734    7.32446650382576
C         9.32777802289167    1.18348070646394    9.04966443990992
H         8.90327897464242    0.20053396912804    9.19625994288328
C         8.99896810755272    2.21132044609647    9.91472932678575
H         8.31599945408369    2.03733604992486   10.73559155179828
C         9.32404276397265    7.01410622823195   12.06886758460425
C         8.77142233080339    7.35803304019941   13.09361558664412
C         8.18923300502604    7.77700503220081   14.31119894341736
C         6.80830510278735    7.92369920620462   14.43470073639115
H         6.17567428525880    7.69965047256465   13.58588351912664
C         6.24751777828253    8.34538166453212   15.62475446822833
H         5.17435763203653    8.44431006120369   15.67184142991980
C         7.03474032323921    8.63768833277372   16.73327507361190
C         8.41438033966473    8.48198839891613   16.60194597400076
H         9.06409730173268    8.69441639895905   17.43917620788374
C         8.98723694184089    8.06066301403407   15.42168382203062
H        10.06039948332669    7.94905463727927   15.34191373447107
C         6.45949737968441    9.11273619837760   18.05852558557993
C         4.93422887178031    9.24417420875003   18.02894648449031
H         4.61859421631269    9.96540671185460   17.27833805928415
H         4.46232739280108    8.28602165796844   17.82284631012654
H         4.58049743143185    9.59098715101375   18.99827502138194
C         7.04866058926150   10.48979458689484   18.39674960307115
H         6.80935925521760   11.20356639495223   17.61079295633275
H         6.63529979521125   10.85655703925619   19.33443441697193
H         8.12969828803296   10.44411244265519   18.49654211484275
C         6.83055842014896    8.10649211524128   19.15727898765786
H         6.42140996035211    8.42522469013269   20.11416070247959
H         6.42704807501987    7.12420676571140   18.91884643113940
H         7.90830159434090    8.01450665547026   19.26134603389946

