75
CSD_code = ZUGFOY | q = 1 | S = 0 | Stoichiometry = C37H29ClN7Ni(1+) | MND = 6
Ni        5.11260293537157   19.07793766473989    0.11485140464785
Cl        3.40188031365844   20.31422476424437   -0.25006902308540
N         4.26242767404608   18.50036237028407    1.63086388973189
N         4.28627060154436   17.09146891705361   -0.69277408588912
N         2.68211332587243   14.65053746536958    3.97492385641329
N         2.76461657829924   13.18215165867314    1.59496605332728
N         6.35619912063005   20.83340727985943    1.14675186909439
N         7.13111929359875   18.26531482472402    0.75280061426881
N         5.97125465139552   19.42657323298432   -1.52251949990999
C         4.14211297572273   19.23110611690888    2.72970388172935
H         4.41787995337071   20.27463576197416    2.65181654297088
C         3.66934512776821   18.71503533505434    3.93088736320107
H         3.59004886197134   19.35819863683076    4.79226810210251
C         3.30874564648600   17.38621242076891    3.99300888256178
H         2.94826238671810   16.92516853251141    4.89880220100294
C         1.97468195809344   12.70856029861523    5.15988985308441
H         1.93583392973538   13.29418114231796    6.06466111122185
C         1.66037219090767   11.38016715244632    5.14182549839218
H         1.36209513222290   10.88277207472365    6.05204656592397
C         1.71904549881074   10.63574831908658    3.94525374639986
H         1.46482767149668    9.58707890871107    3.96950895966434
C         2.08859612103325   11.22287065893406    2.76941261888316
H         2.13496364404900   10.67146860843729    1.84357787277036
C         3.37852957377442   14.47029675498966   -0.84780839300274
H         3.03645590212656   13.44787323668601   -0.88054089497746
C         3.75458474591564   15.15644540307675   -1.98114406738092
H         3.70955921895657   14.69460197674778   -2.95419228921702
C         4.21442601981833   16.46504533140200   -1.84981159167495
H         4.53944128210242   17.02402011977390   -2.71805703995038
C         3.87040034016380   16.45686179756481    0.41361049791342
C         3.86437728855152   17.21252511213899    1.65123761179829
C         3.39586939097715   16.61324802663722    2.83349015527936
C         3.02619914734401   15.21345975695684    2.83267904151716
C         3.05594245054638   14.46883724304739    1.61819392319677
C         3.43108544297642   15.12486621044204    0.38657894288360
C         2.36008099433401   13.35160360340977    3.96354027988533
C         2.41238793663581   12.59657534164110    2.74655803978557
C         6.12596405529917   22.13304145481483    1.01235022728512
H         5.25356695432894   22.39538950958114    0.42837093389662
C         6.94046849142687   23.09689775609704    1.58570574685988
H         6.72071543845999   24.14367462336285    1.45484884025781
C         8.03596812864125   22.68300463565113    2.32703809439925
H         8.69434858526220   23.40287452936367    2.78856749571282
C         8.27780366102042   21.32459057050036    2.46624403020244
H         9.12135208914814   20.96598424776122    3.03561235544154
C         7.40859189343137   20.43124292334448    1.85698005825695
C         7.56946502471115   18.93450254261942    1.98415210306238
H         8.60992511107155   18.67450464482877    2.22278866186133
H         6.94057303429838   18.62018923551777    2.82004365269003
C         6.95193945065891   16.85067393744373    0.84016311366123
C         6.65329695483972   16.20209394194802    2.03861410237724
H         6.60378690992358   16.73678597916837    2.97411511621740
C         6.40187701285087   14.84263027737016    2.07265263787663
H         6.17319738898866   14.37967431731043    3.02181329793384
C         6.44520029155110   14.06495174356206    0.92364116329425
C         6.14309251352137   12.60195663947870    0.96760811837574
H         6.54831936040988   12.15105903246454    1.87064807441264
H         6.55705911178355   12.09312185290969    0.10128308834083
H         5.06301802370867   12.44465303837173    0.97186764367089
C         6.75662340524193   14.70695924409205   -0.26766485611023
H         6.80639140063979   14.13627652614044   -1.18330950283868
C         7.00356072707355   16.06542076575722   -0.31363175814723
H         7.20657561779469   16.50985296818988   -1.27549989381491
C         7.99720138177867   18.68439867545287   -0.36159619192274
H         8.76705133093013   17.92918067787943   -0.56401690830518
H         8.51659363975133   19.60285333352912   -0.06492664323120
C         7.24330109902314   19.01785273541320   -1.62169603599456
C         7.89998488327865   18.96610180553022   -2.84596830332303
H         8.92438564777909   18.62916730901444   -2.88583046359677
C         7.23689999570932   19.35168614750787   -3.99733381992608
H         7.73232198603290   19.31653852529299   -4.95498606005650
C         5.92698919353358   19.78805762016593   -3.88289265572204
H         5.36655883449315   20.11058751405697   -4.74491713866145
C         5.33554290462186   19.80568673997265   -2.63248868957315
H         4.31635313995895   20.14893991877094   -2.50644212942209

