123
CSD_code = ZUGJUI | q = 0 | S = 0 | Stoichiometry = C43H74N2PScSi2 | MND = 4
Sc        9.39338662715528    2.36169431896942    0.51694374239154
N         8.73970979933163    0.20781046031910    0.37638392945326
N        10.52153914783747    2.17910228337942    2.38035754493361
P        11.38234160075646    0.81427265124348    2.31043467378770
Si        7.29292888921223    5.17179200106795    1.65228671606781
Si       11.18844065622400    4.47937625397226   -1.88259339242203
C         7.52741584712452   -0.41661715816705   -0.01762982292879
C         6.97459943153662   -1.42003974595506    0.80232860571469
C         5.79049100605096   -2.03718554823521    0.42799402837377
H         5.37439697314555   -2.81214421860920    1.05400763346052
C         5.13732987083075   -1.68801693976310   -0.73624458954830
H         4.22318813326132   -2.18720259762807   -1.02125015361445
C         5.66717168426719   -0.69170130458776   -1.53104736985697
H         5.15827056212408   -0.41938226048614   -2.44256364529005
C         6.84654062800742   -0.04436531346908   -1.19131514467645
C         7.62668292208396   -1.84301838237529    2.10047742971200
H         8.50050246868692   -1.20691029419427    2.27353879696416
C         6.65700501570036   -1.65792432507242    3.27128339101177
H         6.22664711400098   -0.65979201742921    3.25525235828249
H         7.17497138061830   -1.80512889932120    4.21764491943893
H         5.84504314844765   -2.37895964572244    3.22042070985635
C         8.09418125818198   -3.29937349476959    2.03684294088472
H         7.25147630226996   -3.96576104310031    1.86844731296031
H         8.57233092812230   -3.58354335246415    2.97222425497525
H         8.80469249993837   -3.44296651179042    1.22721779273940
C         7.38483945351509    1.01620593440896   -2.12426297403743
H         8.15120291640940    1.59438680614581   -1.57873987936739
C         6.30190022495056    1.99983772148525   -2.57455947415078
H         5.63236118054015    1.54725289346491   -3.30195095599509
H         6.76569975349972    2.86768783507331   -3.03860128463355
H         5.71399021167351    2.33578384264889   -1.72419376824094
C         8.04523410475831    0.36763913409067   -3.34462779948406
H         8.87336192580783   -0.26754694220615   -3.04103494742072
H         8.42527429850596    1.13408432220086   -4.01693302576775
H         7.32521577007585   -0.24277281543978   -3.88632066899263
C         9.87844942951811   -0.47080370532781    0.24278269591160
C         9.96639836816140   -1.66779861878749   -0.68808198658078
H         8.98022129434618   -1.98630062005614   -1.01653249680030
H        10.46794283622254   -2.50117878780373   -0.19964138520821
H        10.55549615347107   -1.39513051594461   -1.56362692752157
C        11.07872428830767   -0.10026588692075    0.83942527219530
H        11.93625529384042   -0.71683304481228    0.59044228905296
C        11.03621732519295   -0.19246279759871    3.85736904459177
H         9.96370925814416   -0.02348185807950    4.01839579525887
C        11.23855927311708   -1.69546144119803    3.68720892963463
H        10.71163800468782   -2.04107346957563    2.79568641461144
H        12.29600513020802   -1.92993421660815    3.55918555684854
C        10.71326241270982   -2.42147892979759    4.92397271248753
H        10.86386592731955   -3.49787360753265    4.81458680923604
H         9.64006099673698   -2.24104390601666    5.02165739339698
C        11.42289058322753   -1.92246090011799    6.17984002397774
H        11.02539533542268   -2.43366085866302    7.05896034665753
H        12.48765063976525   -2.15868441243982    6.11105409536981
C        11.24895487044721   -0.41368598141928    6.33320226878872
H        11.78322893925064   -0.06512726263202    7.21937487586604
H        10.19100478537655   -0.17781851491688    6.46926807765166
C        11.77219981021721    0.31461256234536    5.09650074229516
H        12.84405280876188    0.13004113680159    5.00449163697866
H        11.62081755053164    1.38995643435784    5.21127558601300
C        13.22942198649451    1.12388042874259    2.28973076242289
H        13.40864750965290    1.78577327506227    3.14632968619678
C        13.56626610204381    1.87239754365523    1.00100463904492
H        13.44065968462389    1.19301822349226    0.15387827775251
H        12.87673930660005    2.70904540319197    0.85628532796074
C        15.00907199812801    2.36583601795946    1.02633525892699
H        15.23316846288258    2.90323215408291    0.10267140500436
H        15.14593970195152    3.06034018619889    1.85863604149476
C        15.95933914168237    1.18235682672842    1.18463030286755
H        15.87646408287313    0.53391318930710    0.30929373157071
H        16.99155672443541    1.53337977683051    1.24318442115822
C        15.61239197039404    0.38528840014295    2.43833534394222
H        16.27310274209020   -0.48066962748727    2.52164367235028
H        15.77199550796860    1.01146933109131    3.31990643579779
C        14.15626066420843   -0.08313736568805    2.41248598333526
H        13.95329535120382   -0.64470160398549    3.32452548557397
H        14.00973395590795   -0.75481699374738    1.56424928270957
C        10.22805445716521    2.81585411288926    3.62059977056915
C        11.07486146207995    3.80464698976079    4.14794711320564
C        10.78154685017565    4.38492510488124    5.37420599343504
H        11.45274651726966    5.13592727360409    5.76617885708041
C         9.65849282731654    4.02087152669302    6.08977627554880
H         9.45181124901345    4.46630107473794    7.05107799387490
C         8.78582898974888    3.10445487494755    5.53789827879110
H         7.87875018177069    2.83958033007471    6.06342419988934
C         9.04082539029847    2.51216968330187    4.30802097174019
C        12.28805555564820    4.29430880752627    3.41301835301138
H        13.20272242625579    3.91673388421651    3.87164249247663
H        12.32713101299729    5.38198198557187    3.45285252693912
H        12.25820354203460    3.98546568513209    2.37232126506383
C         7.98637256549224    1.59780237151508    3.75128906055803
H         8.26874547703004    1.18912662083589    2.77529830878978
H         7.05885413528119    2.15959090535088    3.63202650538818
H         7.78823316998716    0.77967101989245    4.44389597015194
C         7.45470119934818    3.51536678071389    0.75549034219615
H         7.14158798548606    3.70770677984142   -0.28347879235750
H         6.68796522911446    2.82566856682679    1.15370472854666
C         6.50521044607512    5.04239560511162    3.39617402935912
H         5.61533878321698    4.41967751072453    3.39303946846264
H         6.21156284521299    6.02205339916409    3.76090261898491
H         7.20622474922492    4.62723584645860    4.11279544279400
C         9.01952585807777    5.97450279775694    1.87002233561431
H         9.73107121618981    5.24513216476898    2.25330463024487
H         8.99364852134766    6.80597966534477    2.56824024165707
H         9.40104134231399    6.35089392347851    0.92560782697178
C         6.22144463577997    6.42921625874275    0.67304338428439
H         6.60757806078065    6.56555769676380   -0.33268234688653
H         6.20412666736986    7.40426378617000    1.15035194077130
H         5.19387668109031    6.08996288335610    0.58330732531497
C        10.73671664472804    2.73986253964789   -1.30752649609517
H        11.67628916539998    2.17881348148053   -1.16340281563715
H        10.25768781007757    2.24699670135596   -2.17233824648882
C        12.18480294543828    5.40227249336822   -0.52944789203500
H        11.66524287061633    5.36860237098514    0.42418826019504
H        12.32826322519709    6.44671433148026   -0.78795573210305
H        13.16977021494729    4.96609038434755   -0.39041869664046
C         9.57482683935641    5.44922007673376   -2.23577052540340
H         9.07227998050182    5.06403158251226   -3.11786609775840
H         9.76628575362886    6.50381397096490   -2.40672163270240
H         8.88532016750446    5.36404344355261   -1.39902386195118
C        12.25626177943651    4.55401673568606   -3.48060563752931
H        13.20700748183705    4.04620454714735   -3.34519655691613
H        12.47269485071216    5.57718099967266   -3.77337766997594
H        11.74949029761093    4.07718081439729   -4.31457522487132

