37
CSD_code = ZUGVEC | q = 0 | S = 0 | Stoichiometry = C12H17NO6Zn | MND = 5
Zn        0.73248013042977    0.87411986255892    2.32246184877498
O         0.92983671221160    2.44034376130989    0.81404621687992
O         0.22468159478928    2.10182969835077    3.61015361584402
O         1.41987160408088   -0.40916039218732    1.18296841115269
O        -1.30722311109863    0.53150586049614    1.69321542873108
N         1.16017078568153   -0.42665687909005    3.87954588600277
O        -0.47772452368239    2.16501852585026    5.71118731255984
C        -0.04965064460085    1.57355659476849    4.74779113383907
C         2.49606532249983   -0.35736432526474    4.42941357697653
C         0.16421998383109    0.02927498694655    4.85286162741218
C         1.43589910261476   -1.58522022226491    1.69868175516600
C         0.92473053027512   -1.68609923234291    3.17043088187252
O         1.78302229135726   -2.59604139462125    1.13353691079452
C         2.94493794600744   -1.17593420645400    5.47194287596862
C         4.63595378765640    0.77103224103279    4.37011301107990
C         4.23803577086155   -0.97496045497255    5.94809564337926
C         3.35034060080175    0.59854064197571    3.89654974089469
C         2.74462847195546   -3.65230910006030    5.82467087019932
C         2.14206743111636   -2.27539300145216    6.12116928632771
C         5.08058158045227   -0.02170092999025    5.41281136024875
H         0.43909400575656   -0.18816898516344    5.88762230178382
H        -0.80619694460140   -0.42774420275862    4.63929310188187
H        -0.14967273010309   -1.88190596266713    3.10796828806074
H         1.41637213040081   -2.54556999365517    3.62720857820118
H         5.27897918908299    1.52046732712568    3.93529606641663
H         4.58498215178104   -1.58510866680702    6.76915804788590
H         2.98619628100742    1.22564222355753    3.08604351681410
H         3.75529481810464   -3.72740884320901    6.21676123302541
H         2.78793079023036   -3.83745383790177    4.75312992613781
H         2.13875353898820   -4.42981338267642    6.28426824212740
H         1.10343722453624   -2.26831457412860    5.79649098934704
H         2.15051502993930   -2.11560464439246    7.20329382892587
H         6.07701651158216    0.10388082126071    5.80799505248371
H         1.11805170174657    3.28704234094826    1.23435573432318
H        -1.31745526912484    0.30995798914681    0.75510963207051
H        -1.80486525664016    1.34971653477503    1.80456768049133
H         1.64564146007392    2.23580382195591    0.20189038592118

