48
CSD_code = ZUGWAB | q = 0 | S = 0 | Stoichiometry = C23H22ClNRu | MND = 9
Ru        1.07297376468465    8.49616565473033   13.10001565019082
Cl       -1.00383086642103    9.53798232301979   13.41563660919888
N         1.08659058714831    9.42714523606494   11.31593039166520
C         1.58369108704151   10.63271745924229   11.07197403071233
H         2.05252906022763   11.15133934716670   11.89933165381297
C         1.50823081952604   11.23716046637034    9.81995182964956
H         1.93595473713349   12.21868599116517    9.68635423727515
C         0.89015836103185   10.58897588164464    8.77013809577615
H         0.82578387669702   11.04543435348063    7.79387928839346
C         0.32953702624783    9.32540602542545    8.99982149026663
C        -0.35863391304743    8.53640726301354    8.03127173964715
H        -0.45161378785397    8.93300667204483    7.03046967139627
C        -0.89002802323070    7.32705509135702    8.34795702027380
H        -1.40937994681070    6.74995664138918    7.59552832228739
C        -0.79692161669423    6.78525685427094    9.66350087031426
C        -1.34626823874124    5.56441178704291   10.07524270209935
H        -1.87816466802930    4.94749926288212    9.36543156222773
C        -1.22202562820601    5.17190983437786   11.38956124115405
H        -1.66198059875793    4.23577099230434   11.70552930150569
C        -0.55465155306000    5.95489018777825   12.33878758482862
H        -0.52580999859473    5.60826952715888   13.36361512755430
C         0.03534732973415    7.15097477736677   11.98214935339037
C        -0.11114759602744    7.54105075636949   10.63497886218076
C         0.45195873339693    8.79502618481150   10.29851676338073
C         5.25355226075613    6.41565954670570   13.09467364733452
H         5.71231901498381    7.38733581897901   12.92526448195807
H         5.80983624364109    5.67198940718587   12.52930348454160
H         5.33489881840882    6.17673000913291   14.15319423138089
C         3.78589594667532    6.42134560072289   12.65499030484344
H         3.37442480229194    5.41794627897554   12.81375539043164
C         3.65919220110066    6.74968006548813   11.16555671403169
H         2.60755153701308    6.77862934040575   10.88007022165591
H         4.16137943290601    5.99079770241396   10.57003719748370
H         4.10796215295981    7.71410676372863   10.93662702779403
C         2.99085694111056    7.39060919957553   13.49918308578884
C         3.23833346791920    8.78646784911960   13.45931576941330
H         4.02252535684801    9.16590559373117   12.81013821165537
C         2.64782385208377    9.67273194008722   14.39636696577656
H         2.96625146273607   10.70791811545026   14.43367919873239
C         1.66251561785489    9.21362227979759   15.27162331926945
C         1.32922671460818    7.82666958679414   15.25896272758327
H         0.61641125926386    7.45020734447718   15.98563178229792
C         2.01535537474275    6.93192505038451   14.42052952268395
H         1.83999531305851    5.86482652364857   14.51673688588718
C         0.95526749158345   10.13761013377233   16.21180464633467
H         1.49294053664109   11.07711803598078   16.32119396566137
H         0.82867728992285    9.67704873732968   17.19029764995350
H        -0.03789203651124   10.35312050564471   15.80759016831994

