87
CSD_code = ZUGZEI | q = 1 | S = 0 | Stoichiometry = C43H37ClN3P2Ru(1+) | MND = 6
Ru        3.48959811865843    6.91193120416432    5.35026014304420
N         1.85403352279246    6.73443608329986    6.37135329377559
N         5.17286212670614    6.75781214912327    4.31691852083302
N         4.59786965932075    5.88480249503725    6.67644308901106
P         3.99200523980191    9.03905024017054    6.03801398786321
P         2.19922013217827    7.93502321726649    3.71184633863762
Cl        2.95961696155695    4.73425400247405    4.54581579144570
C         0.81238800097817    6.31983276757209    6.65674299265456
C        -0.47085092651398    5.85663466541181    6.97208307887103
C        -0.84793634536503    4.57941327487702    6.54313772170722
H        -0.13444297349056    3.96712105636049    6.01289299469669
C        -2.12803252263737    4.13084963477292    6.79755721603409
H        -2.42515091218456    3.14720070947122    6.46795742953957
C        -3.03043417157755    4.93905094358764    7.47349555167174
H        -4.02991858034977    4.58199078480938    7.66860315285853
C        -2.65435059840603    6.20381468923172    7.90184418395471
H        -3.36005229094556    6.82730298361164    8.42913241279743
C        -1.37899783761283    6.67056687365280    7.65576389243131
H        -1.07748304240248    7.65510068140197    7.98127531521981
C         5.49159176743683    7.38364205829661    3.18539865868258
H         4.80065372993335    8.14715516168880    2.84693858488122
C         6.62758779042341    7.09978052867286    2.45629067747709
H         6.82833888541465    7.63688984733573    1.54406704375359
C         7.48572113119275    6.10850469927612    2.91477245412525
H         8.37391434624242    5.84597736003533    2.36291864014749
C         7.18042358479435    5.47230288828505    4.10181906797457
H         7.83537559745432    4.71104538460946    4.49161035428810
C         6.02006530848905    5.81883902590178    4.79281110478754
C         5.66191020242600    5.28377706632756    6.10538470822908
C         6.36553657013812    4.27944217760039    6.76881651063403
H         7.19271864512281    3.78544454945940    6.28708027774882
C         5.97523285359306    3.90266559469847    8.03997858162117
H         6.49622243564448    3.11611260604803    8.56228291612015
C         4.90197479235498    4.55776654154274    8.62913556437045
H         4.57034211345753    4.30525211446638    9.62290279392831
C         4.24262828351051    5.53610173629837    7.90854879434716
H         3.39535820700742    6.06042046059326    8.33384986984231
C         3.92680899121065    9.58694899627735    7.76794933655362
C         2.88089738253737    9.10446422201051    8.55122181301003
H         2.16877384279866    8.41571895613427    8.11227454521581
C         2.75732906098850    9.50361966651158    9.86843870690735
H         1.94559718294590    9.12912182047905   10.47424989624831
C         3.67981767619621   10.38458389790985   10.41161266514423
H         3.58651444965257   10.69520888409464   11.44084009012713
C         4.72120257490651   10.86655187610572    9.63542318394596
H         5.43678564173911   11.55456091366673   10.05935883256832
C         4.84969568687958   10.47189176845850    8.31527607859941
H         5.66253892543485   10.84966200421481    7.71179461561838
C         5.64768821267584    9.55079659560958    5.49737190466863
C         6.69769757967927    8.81585030333081    6.05108178255818
H         6.47389982620941    8.07266959851136    6.80979140999912
C         7.99868190117919    9.04247021592095    5.65045387699014
H         8.80689678065967    8.47497069710219    6.08690232519709
C         8.26403824256380   10.00268630674800    4.68475626630513
H         9.27960904070726   10.18009013564570    4.36637445322713
C         7.22809560869347   10.73761398787328    4.13498626353845
H         7.43729497900757   11.49057759760566    3.39017228361493
C         5.92041691442819   10.51394941111464    4.53462278632933
H         5.12461086803968   11.10020326844759    4.09969312672955
C         2.78018039428202   10.19400344783291    5.25603135232656
H         1.88866477775450   10.12593929687495    5.89165897145810
H         3.15277699679486   11.22270656105776    5.30949306352630
C         0.41044749639227    7.67305259210557    3.91682583033586
C        -0.45306556680654    8.57484003182076    4.52860792029647
H        -0.09603531678133    9.53288398740098    4.87857810351570
C        -1.78881502034936    8.24810968970822    4.69034542596239
H        -2.45909416602012    8.95472623585620    5.15702751007956
C        -2.26693520379036    7.02300415707021    4.25771891520274
H        -3.30924940529780    6.77475288035940    4.38756590334625
C        -1.40528738765432    6.11396652732499    3.66387202604894
H        -1.77469495971019    5.15556356758225    3.33191837075997
C        -0.07194174300193    6.43409303815090    3.49622772264812
H         0.61215497528295    5.72586129148998    3.04754941208277
C         2.36164281427286    7.60721749124776    1.93128116602329
C         2.98182072881695    6.43748193795951    1.50406756095953
H         3.37384228582190    5.74297204952407    2.23511821301303
C         3.07343501875983    6.15728426940948    0.15221342884199
H         3.55192384286214    5.24667671589627   -0.17529812591778
C         2.54669535072875    7.03967261039083   -0.77607038636332
H         2.61809573140654    6.82139931168063   -1.83068183209850
C         1.91582639748029    8.19922831824495   -0.35218087067952
H         1.49340959816173    8.87995153767012   -1.07590549696243
C         1.81683918556381    8.48456677118089    0.99673920520859
H         1.30826499314897    9.38056896535137    1.32209608520011
C         2.44503899192038    9.77475371855392    3.82711385057406
H         3.27376804239663   10.01587275085157    3.15268725409793
H         1.55465998025086   10.29783086853739    3.46760946581431

