65
CSD_code = ZUHBAH | q = 0 | S = 0 | Stoichiometry = C33H21F6IrN4 | MND = 6
Ir        4.40743135215648    3.41302726408900    3.12112169843238
F         1.92405734922541    4.15543508270597    0.17675601314996
F         0.97581584504254    4.09722138766627    2.11266026561812
F         0.48231218211936    5.65153802460181    0.71291786576839
F         3.75392460008050    9.71815564879420    1.38576496639632
F         4.18343613355043    9.58247297852616    3.48413699467467
F         5.67350900678935    9.00839171664046    2.04120969222422
C         1.63766439573725    0.21122833656902    0.81907460809093
H         1.04229107598453   -0.49534030346607    0.25989622179938
C         2.67934788439507    0.87484832544399    0.20676788882567
H         2.89357221379041    0.68226264868541   -0.83355354587602
N         5.17300487945921    3.36328515716576    1.25868670691227
C         4.32390611518232    6.39307475216355    2.90052849398220
N         3.55338952409777    5.33340719629590    2.54953166400990
N         3.59514363577726    3.35891417997703    4.95662070796930
C         3.16678997644097    2.05147451528065    2.28926623860133
C         2.11217004292884    1.36243886100548    2.87723120488058
H         1.86286199422818    1.53356490052160    3.91505635612646
C         1.35316601206928    0.45879746355778    2.15353247046094
H         0.53275699701893   -0.05672901783817    2.63196649516747
C         3.44350819185843    1.79058631017745    0.93039133745063
C         4.53769311691563    2.56346625342426    0.36764561679145
C         6.18043667902242    4.12584190931079    0.83625008461896
H         6.66619418178803    4.74578801862041    1.57748331852440
C         6.61318590056278    4.15033418902660   -0.47406820228477
H         7.43064285848896    4.79149403083829   -0.76163133884162
C         5.96849112196297    3.34088693736493   -1.40094999430064
H         6.27404784952451    3.33887154605345   -2.43611010815416
C         4.92835148415050    2.54314031007600   -0.97195888922915
H         4.40468230135008    1.91144353685810   -1.66970568822820
N         5.81246238752528    4.89730655839899    3.96150447531022
C         6.84768613446445    4.61536958469908    4.74132315496922
H         7.09669906147911    3.56695848483376    4.83575224240036
C         7.58438196653455    5.58156367658159    5.39815199513532
H         8.42382746310695    5.30297026310166    6.01424760972013
C         7.20284618837049    6.90904788216666    5.24912245828019
H         7.73565965785951    7.69624239911718    5.76085140622222
C         6.12841159211440    7.21168200900077    4.43982780092516
H         5.81104653140346    8.23260834300862    4.33683321924245
C         5.44882660553247    6.18038410056518    3.78086360996669
C         2.57352447093054    5.80159942804434    1.75584510229459
C         1.50805893372245    4.93252208123458    1.20163788187471
C         2.69529740238698    7.16968228112403    1.55786861119377
H         2.05960663756412    7.79632321315691    0.96599765303196
C         3.81922806930809    7.55770401319608    2.29079282720408
C         4.34581726826580    8.93799515482767    2.30033913498616
C         2.64376561481466    4.18594093942633    5.38529410632070
H         2.26475496960914    4.89963404697482    4.66791404270602
C         2.13939063201018    4.15221294772020    6.67077254299236
H         1.36796923586884    4.84428271265735    6.96659217592511
C         2.64448000556305    3.21226657228726    7.55911358469611
H         2.27594012981452    3.15702997804644    8.57211162143295
C         3.62289139408435    2.34337112453156    7.11842797397485
H         4.02545101632407    1.59772716199948    7.78434568329132
C         4.08807406439176    2.42523799556500    5.80638434883443
C         5.09362456938501    1.55351738944382    5.21600070939528
C         5.75164840909511    0.53758580340091    5.90921940813222
H         5.54115835373345    0.35790514229347    6.95317467268089
C         6.68444808677088   -0.24648460433224    5.26211239233592
H         7.19561261295709   -1.03291741573333    5.79745731708583
C         6.95972004328699   -0.02359143290416    3.92125742982197
H         7.68588289615054   -0.64205924989942    3.41310103694542
C         6.30978254781653    0.98581834275982    3.23043149740366
H         6.54261081490326    1.13261268724848    2.18449962884632
C         5.36932933114649    1.80092822533066    3.85231150085853

