57
CSD_code = ZUHJUJ | q = 0 | S = 0 | Stoichiometry = C25H28FeO2Si | MND = 8
Fe       -2.23601642838357    2.53402676124752   18.81305748673291
Si       -6.54094051603304    4.55070863032117    9.87517054539317
O        -1.38165325215042    5.28449290738814   19.02260460677227
O        -3.63711429454499    2.90787482985081   21.31786012018102
C        -1.66806532363427    4.17632416860960   18.94183633299967
C        -3.07860662863938    2.72754399125555   20.33192038750236
C        -1.03292350003213    0.69679083977603   19.17028448849975
C        -0.35503513894483    1.49143507415926   18.20548478590050
C        -1.21379382178031    1.63128008067658   17.06872255721336
C        -2.39424043364481    0.85591220449679   17.30769797156551
C        -2.29858315723597    0.30016110651430   18.61031132782662
C        -0.43578541302410    0.15284944436702   20.43098431687097
H        -1.20126150225756   -0.03513225741897   21.17987498815215
H         0.28953354669920    0.84528883753845   20.85079627282240
H         0.07424538414538   -0.78966485701189   20.22179963094806
C         1.06638776855966    1.95144011982844   18.29338824773461
H         1.22512728504149    2.85374641177849   17.70828402374353
H         1.72752265610417    1.17339153562505   17.90670363851531
H         1.35011035172109    2.15657216851551   19.32264764965581
C        -0.84390698649504    2.22910613664527   15.74664404041226
H        -0.07621713703281    2.99012062746019   15.86067616340281
H        -1.71177618119098    2.68662602004363   15.27739605006918
H        -0.46295539215998    1.45341369940902   15.07936311550367
C        -3.45538419164684    0.57955761710533   16.29202227784321
H        -4.34851735990386    0.17494255415374   16.75936304198864
H        -3.08660290198464   -0.14311874477964   15.56204363018780
H        -3.73105143156022    1.48992366393153   15.76524847328460
C        -3.22808343933730   -0.71206172848110   19.20550257504460
H        -3.18755633831781   -0.69038814766684   20.29177864953816
H        -2.94601482505103   -1.71334487631019   18.87373696333308
H        -4.25484534536846   -0.52732308322370   18.89940632976337
C        -3.61555502842022    3.48206214532133   17.94785539497827
C        -4.47273230792050    3.99978559933754   17.26792073545555
C        -5.50021247473416    4.58052167643934   16.48236506181461
C        -6.52505737802970    5.30659924197394   17.09466884278416
H        -6.51969981206183    5.41996378339011   18.16875403586203
C        -7.52904901736600    5.87104227922084   16.33025174642382
H        -8.31778355198239    6.43215509278076   16.81115438224408
C        -7.53277549498977    5.72464790506133   14.95505557623034
H        -8.31532134987265    6.16425007373744   14.35420039188699
C        -6.51351012492731    5.00169396570785   14.33143220358621
C        -5.50058279924737    4.43150963514283   15.09772227804596
H        -4.71132422228840    3.87487100658219   14.61181712177880
C        -6.51164454745222    4.85181303914808   12.92412054459388
C        -6.51699727645979    4.72457576274977   11.72090101171960
C        -4.75268559227898    4.68166606627962    9.22506557634310
H        -4.71588964912489    4.59563739023935    8.14263770501966
H        -4.30637073020351    5.63415235494842    9.49478542071944
H        -4.12538302133396    3.89778613261483    9.63885112001470
C        -7.61494076952476    5.94849705222542    9.14858061756026
H        -7.66918219627181    5.88747939037392    8.06513641069149
H        -8.62992962893652    5.90200915893820    9.53176188613929
H        -7.21347125374257    6.92470815885411    9.40361995835025
C        -7.28201357298872    2.84930195640942    9.43413307626659
H        -7.33457818478999    2.70553220751248    8.35849438462403
H        -6.68454082432434    2.04132642169964    9.84566062934790
H        -8.28806524252455    2.74611676719346    9.82954319839163

