64
CSD_code = ZUHVUV | q = 0 | S = 0 | Stoichiometry = C28H32MoO2Si | MND = 10
Mo        3.35765516655687    3.31252015463493    2.07583762193011
Si        1.90606887700696    5.17303725959797    1.18983719300561
O         5.11998836567364    3.65771119381347    4.56216718146112
O         1.42783858580509    3.67539454853516    4.43699275196063
C         3.75747570612859    5.44768988937345    1.14336106876853
C         4.49799496226781    5.52582526022153    2.32090801141369
C         6.00522679948829    5.55147464981330    2.19443440372809
C         4.01257690326416    6.36487866990542    3.48266365668843
C         1.14396685095024    5.24016943857413   -0.55020029658771
C         1.85352850458824    5.65541785879819   -1.67209030830421
C         1.26003114872059    5.68730981099749   -2.92201566058793
C        -0.06233567124072    5.30621043126350   -3.07222130459914
C        -0.78954577071909    4.90734220764131   -1.96266997976572
C        -0.18928929418825    4.87843308768499   -0.71778840297957
C         0.88183083422002    6.47482379493268    2.12831142129304
C         1.18459203103270    7.82937694128971    2.01802843442621
C         0.42184671438471    8.78460315070515    2.66357344275047
C        -0.66640078140139    8.40088612815472    3.42963071392711
C        -0.98523187380331    7.05881857122141    3.54335326792114
C        -0.21731641911429    6.10702744982734    2.89605498951262
C         4.46616799928628    3.58959201974301    3.61516631438022
C         2.13518119449782    3.59236032241490    3.52940754871915
C         3.90368778364505    2.35877185558889    0.00396062236737
C         2.60457884998941    1.88843789244964    0.36735730567034
C         2.72966595829947    1.15269514048599    1.58069658389466
C         4.10714239751873    1.16177289502086    1.96028778663381
C         4.83135540814639    1.90376129257758    0.97533783759748
C         4.25447594266971    2.93533297285467   -1.33625391652082
C         1.40358252860481    1.84675463672711   -0.52817665785794
C         1.65858339120246    0.30376181007735    2.19645378808854
C         4.72224577691836    0.30342600615061    3.02460494177305
C         6.32600428245001    1.94708763735684    0.86993279210449
H         4.32276694602613    5.31639746617718    0.22342735182169
H         6.48682289699193    5.25235594493248    3.12355788397688
H         6.33177896680922    6.56878161888503    1.96883385906906
H         6.35028209182693    4.89742706194330    1.39600188469424
H         2.94323065424537    6.26532523280563    3.65227974091034
H         4.22699605184655    7.41351973242440    3.26478119332662
H         4.53818377285276    6.10658147236286    4.40087629504897
H         2.88077396296492    5.97276593653282   -1.56548213126131
H         1.82952626875146    6.01287543967436   -3.78141744720338
H        -0.52618912903482    5.32722632422103   -4.04768585987330
H        -1.82543953609017    4.61917994604542   -2.07089998854694
H        -0.76252337219505    4.57149745017493    0.14516100382850
H         2.03399356111798    8.13202991522724    1.42164052245238
H         0.67435511865902    9.83126649888513    2.56998563999588
H        -1.26323872697701    9.14569684297271    3.93605129805713
H        -1.83220162959096    6.75314452528981    4.14038207143532
H        -0.46931921425348    5.06149110043255    2.99790232805085
H         3.44697496469543    3.55176198618259   -1.72872172533643
H         4.43150817707773    2.12119504153197   -2.04384846322394
H         5.16110143695876    3.53841440316502   -1.29374795891313
H         0.47956891532773    1.92791653734463    0.04093622224619
H         1.38733324660947    0.89325073738844   -1.06305256269816
H         1.41903035801822    2.64720922697056   -1.26366520725441
H         1.82724553352106    0.17533052654145    3.26447247553389
H         1.65150924379267   -0.68379879269778    1.72861292206058
H         0.67698939352349    0.75349095085478    2.05823851012779
H         4.94566574941358   -0.68670230346958    2.61930985794822
H         4.04605663774597    0.18292851908197    3.86988116169372
H         5.65018515809786    0.73758319837390    3.39219019075558
H         6.65639185549067    2.73974466594599    0.20057361044049
H         6.69548061309959    0.99857279956892    0.47196862324029
H         6.78858687979228    2.10503501579841    1.84331354476557

