46
CSD_code = ZUHZEH | q = 1 | S = 0 | Stoichiometry = C16H25Br2O2Ru(1+) | MND = 11
Ru        5.64090859356511    2.53191782193974    5.53778961156069
Br        4.18971681003630    4.15940115143517    4.26497187893714
C         7.05198091339676    2.53200216402602    3.79145108207469
C         7.37266709845279    3.69686108705004    4.57921242899362
C         7.86251237349050    3.24811588718211    5.84479624995466
C         6.72171811684767    2.53202161966751    2.34246480800815
C         7.44895572295038    5.08897561131250    4.06502176527431
C         8.54784444495978    4.10936454330277    6.84742506900341
C         5.34862129761292    3.90937055221782    7.24265574838343
C         4.08487283345313    3.26204352527107    7.30029138013688
O         2.89523390829712    3.81322938578961    7.26148780652909
C         2.73394409732424    5.22761225040609    7.30191938574676
H         7.65040707142189    2.53223448645573    1.76856653939091
H         6.15148745622616    3.41657726960292    2.06331445212110
H         6.65117541395473    5.30089657682075    3.35598732831816
H         8.40046829149275    5.21462673162030    3.54446653914824
H         7.40098929696074    5.81892946180863    4.86917238878563
H         8.09624139633013    5.09609813020711    6.91282917770298
H         9.58382838617350    4.24188056403355    6.52831838325519
H         8.56457299940935    3.65892892533169    7.83685278864649
H         6.08990996455236    3.60558148277215    7.97660015936965
H         5.31536571794235    4.98580212332016    7.09904877153941
H         1.66519888216175    5.38504732556241    7.42818710584829
H         3.05601057704437    5.68934296201604    6.36712950429749
H         3.27641400415121    5.65754209529503    8.14691277290158
Br        4.18976363476288    0.90457665191054    4.26490748754341
C         7.37268242077320    1.36714483242041    4.57921142178787
H         6.15180688831829    1.64729414326075    2.06321685874427
C         7.86251595735904    1.81589417713137    5.84479992766018
C         8.54783931604197    0.95464259822429    6.84742872118097
H         8.09622760362414   -0.03208777828356    6.91282763693337
H         9.58381885786854    0.82212786817562    6.52830887132337
H         8.56457151087040    1.40507391159153    7.83685847320825
C         5.34862275677410    1.15462674172600    7.24269787999038
C         4.08486409927040    1.80194844074887    7.30032241373852
O         2.89523058087132    1.25076804081801    7.26150299332987
C         2.73393210854703   -0.16361603176546    7.30190273303737
H         1.66518109153743   -0.32102988981023    7.42815050864874
H         3.05600730172951   -0.62534629610613    6.36711560104143
H         3.27639073164409   -0.59356573193420    8.14689278174193
H         6.08989213835539    1.45842802690034    7.97665681910545
H         5.31539435569410    0.07820125376714    7.09901830777157
C         7.44892117544977   -0.02498635509505    4.06507019384910
H         6.65122522758572   -0.23686564137887    3.35592922765066
H         8.40050488691536   -0.15072341237969    3.54467214696500
H         7.40076168779962   -0.75490928436878    4.86923586882016

