34
CSD_code = ZUHZUZ | q = 0 | S = 0 | Stoichiometry = C16H13BrHgOS2 | MND = 3
Hg        3.15862716636604    1.00503767750731    4.99659241086869
S         4.26486404837925    0.48831115684792    7.35148751135497
S         4.28419121686949    1.17614928971291   10.20969883636726
Br       -1.74161726580543    7.81044466461840    8.55042290296114
C         2.05962214315588    3.08590261859524    7.46517987545511
C         2.77690911841131    2.54568399091226    8.55219906451083
H         2.58576496697344    2.99400852873357    9.51823654802552
C         3.66870799401116    1.49344037956511    8.58790354595738
C         2.48206921042816    1.01119172569377    2.90324632088219
C         1.59623267398409    2.02284342747862    2.53861487671600
H         1.28304947827158    2.76378195434348    3.26513804502850
C         1.10575078144455    2.09584935346906    1.24385981942927
H         0.41955798226254    2.88641676677262    0.97749444230222
C         1.49239832038556    1.16249795142067    0.29855241909066
H         1.10951904182761    1.21973090944103   -0.70971754289174
C         2.37248200214962    0.15562269817915    0.65180292878039
H         2.68066007624401   -0.57725291012815   -0.07950053828004
C         2.86719132054568    0.07626658124717    1.94525383005072
H         3.55502373559381   -0.72192450418203    2.19375902413426
C         1.16440817719396    4.23897530175644    7.77000792351029
C         1.48554839055442    5.21521806280912    8.70970949207251
H         2.41823463952702    5.16716482719865    9.25052196089560
C         0.62953017783906    6.27619581567814    8.93788047019587
H         0.88030415947527    7.03655568167586    9.66163384113678
C        -0.55570245344865    6.35677367037341    8.22575602979835
C        -0.89028341996825    5.40523667633853    7.27675950780205
H        -1.81417321748126    5.48697952027948    6.72495553616433
C        -0.02175097997593    4.35659951717907    7.04806462575542
H        -0.25713202091879    3.60585042465945    6.30857011409049
C         5.39777374828336   -0.23569644841038   10.00542389007705
H         4.84243170427978   -1.07963914489285    9.60748838408649
H         5.77832606889028   -0.46013041523585   10.99678697989773
H         6.20820848107855    0.03490590960898    9.33545959571692
O         2.07097253319877    2.67890834076685    6.27915732803815

