56
CSD_code = ZUHZEJ | q = 1 | S = 0 | Stoichiometry = C20H29O2RuS4(1+) | MND = 6
C         1.89025634997102    3.58581436175311    1.13156173566391
C         2.75356348653489    4.56450669991791    0.70025732971890
H         2.90628676132678    4.83197842880087   -0.33377904771696
C         3.48802143435152    5.20719519725709    1.72326249044807
C         4.46451748382603    6.27180445630379    1.43433964075496
C         4.37890155380012    7.06711375021391    0.29189566377127
H         3.56710857998581    6.93012883596402   -0.40520295570617
C         5.31441962131473    8.05845025889414    0.06412216361926
H         5.23867198865211    8.67259127189667   -0.82031724916805
C         6.34646085249916    8.26786549076734    0.96519912321926
H         7.07724749969674    9.03987886167978    0.77922493050716
C         6.43590820464558    7.48788730424625    2.10714561369011
H         7.23643237355306    7.65094620619409    2.81275475170932
C         5.49906370812112    6.50155542748726    2.34291357862623
H         5.56306753639825    5.88443410122988    3.22719120289137
C         1.10378405866777    3.09155145716173   -1.07304641126208
H         0.79918084710831    4.11479317168943   -1.29954121908830
H         0.38327328926987    2.39136727256040   -1.49152475786124
H         2.09286460064781    2.89990211120466   -1.49334826950792
C        -1.31924999667091    3.83863473642932    3.50323521413772
H        -1.36608271007557    3.63686158057334    4.57440391888773
H        -2.19883819798592    4.39982204879534    3.18759462364554
C        -1.18807045522782    2.54779381235901    2.71750199365870
H        -1.01973640274534    2.74057564937714    1.65790296882154
H        -2.06318528439186    1.91346116274628    2.86091275942714
C         0.63087664724672    0.34331706505386    2.17532052597566
H        -0.23591767766927   -0.31622501304595    2.15284550715807
H         0.79169285675331    0.79501156521473    1.19873020610565
C         1.86378391845989   -0.40614832068403    2.67991707261495
H         1.81570159812435   -0.47235229862787    3.77101630147281
H         1.83493795473099   -1.42749997837962    2.29235489075085
C         3.19604841927730    0.18945270648938    2.24269768863966
H         3.20996079909928    0.33080374892847    1.16136188534272
H         4.01469733459961   -0.47545187937174    2.51804506327300
C         4.11206063729285    1.49731263531364    4.63808955681095
H         3.44675071043489    0.72593446181039    5.02823669659244
H         5.14378779855662    1.14482271898303    4.65163526615681
C         3.97142400563017    2.78677427758822    5.42481569028524
H         4.48894022105820    3.60755089807986    4.92449250380453
H         4.34530438271811    2.66386953486939    6.44212291670618
C         2.18006554864408    5.00370932933541    5.87965426847316
H         2.66639799087986    5.14397031005637    6.84464672276679
H         2.73931573913151    5.51778890843878    5.09666086537596
C         0.71889070099784    5.45320506712362    5.93220456397866
H         0.09872003162261    4.61564128808508    6.26639727256146
H         0.61768442766557    6.24597276789298    6.67726023302631
C         0.19006754007961    6.01543424627271    4.62035269110492
H         0.82194307036867    6.83781496477147    4.28087891972613
H        -0.82878058801606    6.38268746490273    4.74206180707899
O         3.32315752119784    4.86131505179494    2.92854107686587
O         1.10291587871584    2.86879319035963    0.33780340662649
Ru        1.88704148181144    3.32080551077096    3.12544784103070
S         0.14872384945663    4.90515875836242    3.16604220147721
S         0.27164620397775    1.66224391284822    3.38173178217517
S         3.67427669507403    1.83679877055583    2.88139111493764
S         2.19341711881291    3.21377468070342    5.52208366821398

