111
CSD_code = ZUJCIS | q = 1 | S = 0 | Stoichiometry = C51H53Cl2N3OsP(1+) | MND = 7
C         0.11703554849117    8.89911421369076    3.59911563461962
H         1.10452182086053    9.32545656297384    3.51051524636343
C        -0.99363384199425    9.64515929069131    3.24940011280571
H        -0.88033311052225   10.65677431051500    2.89227254010457
C        -4.17214958929065    0.24594648692928    6.65027749100461
H        -4.32081515835032    0.58340559402787    7.68644431714708
C        -1.49811986549970    5.59454015835511    4.61977334117943
C        -1.94730316962798    8.37864875741946    7.14391382660206
H        -2.46213731210985    8.64068055842718    6.23050378749151
C        -0.41760631117253    4.95485844053619    5.46918074055552
C        -2.99850208719719    4.08634362079017    3.47983830672340
H        -3.55971507658460    3.65023524011295    2.66427900118801
C        -1.28281250576835    7.02764042656117    4.18235374871917
C        -1.79512505942477    5.19997078516853    0.92953718569690
H        -2.86054947805109    5.02995985368682    0.93496641630995
C        -2.67886478341701    1.91475844015865    5.41969303968991
C        -4.85388313455761    4.49832847589156    8.75921112506095
H        -5.62815776275814    5.24583767078503    8.66131766231718
C        -2.39199211694739    7.77857454081038    3.80355174683822
H        -3.37809965895888    7.34129071475398    3.85817692610595
C        -6.81337722545919    7.71906190598466    5.57932114609069
H        -7.42223011064744    7.70320508334418    4.68852005095335
C        -7.18949686160444    8.49419585876123    6.66415698067841
H        -8.09225552095273    9.08300627116566    6.61785490435084
C         0.42564567731655    5.70096823935592    6.45705467591492
H         1.47645822598641    5.62119145922751    6.17385263559313
H         0.33170057578292    5.25592763213769    7.44881492660918
H         0.16090552291811    6.75117150804135    6.51578794693692
C        -2.81591087691096    5.39071410204670    5.36978669808855
C        -0.02339543954388    7.59902259724122    4.05384801481213
H         0.86415591677493    7.03816759533749    4.29347190564251
C        -3.60177981382723    4.48789307558989    4.70760715825758
H        -4.56343248369590    4.13644470756701    5.05006848779844
C        -0.42216130383340    8.92618296765914    8.91312061827968
H         0.26111927549228    9.62312288125218    9.37275041529754
C        -1.06383797350185    5.06004728017003    2.10820771422065
C        -3.66786451832736    4.62072382670275    8.04430673524108
C        -5.24833750395776    7.76733276571690    7.86985431468148
H        -4.62974912284742    7.78575053036020    8.75773532021428
C        -2.67727616334416    3.64590661110696    8.15568112889410
H        -1.77050333130342    3.73247693112797    7.57383336513991
C        -1.53492395885155    6.79832813390406    8.92591413965464
H        -1.72822945501075    5.84287444408859    9.39335043201047
C        -5.65576806709756    6.96167147699257    5.63192767801084
H        -5.36475201044114    6.35747694878474    4.78517483150039
C        -4.87073661356168    6.98470040579981    6.77831797505477
C        -4.04190646463215    2.45323313631199    9.72367500701352
H        -4.18721338407367    1.61265041944471   10.38501108282343
C        -1.16768639466534    5.56773792172930   -0.24622771306538
H        -1.74743228141371    5.66820753899888   -1.15109823994309
C        -1.06688389531316    9.26661812091135    7.73287724272319
H        -0.88875465883433   10.22637939219294    7.27340642527859
C        -2.86344575045869    2.56847624093473    9.00018071004899
H        -2.09311135214540    1.81768817534528    9.08870832085450
C        -2.25149693900837    9.07524482471829    3.34510025172513
H        -3.12674947883363    9.63807470818754    3.05759086692637
C        -6.40742443000975    8.51733800936610    7.80942454396666
H        -6.70026072336174    9.12178213979548    8.65396455258550
C        -0.09586220156992    2.44494417527930    2.58371519600206
C         0.19454602092607    5.81317830383752   -0.26644609747581
H         0.67978731685693    6.10607570681049   -1.18482840788046
C         0.31201733972281    5.29703992021242    2.07151823763503
H         0.90084344145589    5.14723774693630    2.96451957780063
C        -2.16805809795543    7.13513836360044    7.73384504261835
C        -1.72971160893798    4.69747327741268    3.36832708278969
C         0.93307493102186    5.67435706854379    0.89811526311093
H         1.99733150672140    5.85860270185066    0.89006769067457
C        -0.66164746961533    7.69896143981267    9.51102572828423
H        -0.17047743435729    7.44334496401817   10.43721751549037
N        -0.29984407826769    3.68248813216352    5.31464781823717
H         0.40897114832061    3.22294009642376    5.89492436566324
N        -3.37183633720451    1.20795525058101    6.02448948031264
N         0.49981442773572    2.01424486464045    1.68992562992784
P        -3.34497986439454    6.02069115833300    6.93979541623736
Cl       -0.09350961135575    0.74910318796278    4.93096139258598
Cl       -2.57730072191771    1.06562089218062    2.64605756063622
Os       -1.37233302667267    2.53670432601152    4.07546441129788
C        -5.03558256056673    3.41087298661820    9.59675665644497
H        -5.95517563555976    3.31268100528868   10.15270404246813
C        -5.37713359089612   -0.41359122034792    4.52947765721640
H        -6.36209850113279   -0.49667527588852    4.06733761619127
H        -4.77297125957657    0.26063178926141    3.91929165476199
C        -5.52837687143162    0.15169169203213    5.93897588611190
H        -6.16862834308181   -0.50392427972169    6.53279877080446
H        -5.99358445371086    1.14096633117132    5.90801599987476
C        -3.44194832577418   -1.10438788353302    6.63801699840684
H        -4.01217816722313   -1.79802620268721    7.25944288418833
H        -2.44911273784834   -0.98414260619686    7.07688929480107
C        -3.32197032117509   -1.65335628380411    5.21974859081243
H        -2.70169071968889   -0.98566765668829    4.61902456251298
H        -2.82872286417889   -2.62556011245479    5.25272708562337
C        -4.69723979274868   -1.77819218745124    4.57333112485120
H        -4.59049074822882   -2.16276720464495    3.55925466769239
H        -5.31159800882674   -2.48189286286594    5.14139636263512
C         2.46817906668960    2.33305453929559    0.35649783085280
H         2.98589442977911    1.91139638238767   -0.50624277515595
H         2.12026748138447    3.33428218751947    0.09193778265295
C         2.67766153820678    0.11151671489843    2.28047422676556
H         3.01333219404064   -0.89508466591311    2.53220930845600
H         2.15955459233788    0.51373961934823    3.15377892913331
C         3.87678704667125    0.99038430805408    1.93725466495636
H         4.55136790678611    1.04486093358709    2.79294470621330
H         4.42781698352809    0.54745621159117    1.10454526784035
C         1.26239297936200    1.43998490924427    0.66918102709821
H         0.60823534231491    1.36998681561242   -0.20933717780982
C         1.70743414532397    0.03749255018498    1.10513513475294
H         0.82992535393180   -0.54936739204640    1.38184741886018
H         2.18786581148554   -0.44365186313073    0.25149162209692
C         3.41826217307953    2.39345133291951    1.54936352603165
H         2.90636786684287    2.85563822701441    2.39750148099272
H         4.27987387575643    3.01407757535572    1.29702881977997

