95
CSD_code = ZUJCEO | q = 1 | S = 0 | Stoichiometry = C48H40ClN3OOsP(1+) | MND = 7
Os        8.17842162439426   66.03672975513609   -3.49808662452369
C        12.18705593282574   65.85121911468109   -5.37409185961119
N         9.17921090990145   67.54919735264404   -4.29468649430947
H         8.71131122416949   68.45862184341013   -4.36198517822969
C        11.63192157159284   66.25097643629117   -2.91928446822127
C        13.21528305417329   66.05502594088712   -7.53891687186778
H        13.23423877730196   66.50212436816530   -8.52101030857549
C        12.68238356847554   67.50924062388509   -1.07878013963025
H        11.91104740759509   67.14481764798330   -0.41681447300868
C        12.66466914552287   67.14244133937815   -2.42858561166547
C        11.12540841028412   66.21194153663862   -4.36721854876349
C        12.20706511346344   66.39449300352462   -6.65261503958175
H        11.43294657855163   67.08091310770617   -6.96143393791176
O        15.64935414486438   69.67159976232566   -0.99684146759009
C        14.65514722267423   68.84793071472126   -1.38742088366456
C        13.65127514716034   68.34428505818032   -0.56153224028492
H        13.61617372611990   68.59905629422752    0.48582551552716
C        13.68023885064591   67.65649218854473   -3.24598772797924
H        13.72621773790082   67.38217912133422   -4.28692587910476
C        14.65084011954333   68.48595669669362   -2.73869564256482
H        15.43419548961407   68.87163712808076   -3.37117433448986
Cl        6.42604929606147   67.53417450285255   -3.16806908675981
C        10.43792707759144   67.55331906535089   -4.54741344038319
C        11.18827479571973   68.81161113919759   -4.83709621510925
H        10.53549152617590   69.52993653249681   -5.33074329173760
H        12.06610525930519   68.64166553114113   -5.45146727334594
H        11.52849196081322   69.25518953604448   -3.89934775677151
C         6.10540272866465   65.82246807924460   -5.77390107787466
H         5.56270312802168   66.58120993267212   -5.23174598111721
C         5.50827481874474   65.27823389666264   -6.89721065220715
H         4.52752920579803   65.62001325659710   -7.19244411989688
P         9.63924532486115   63.95519377870271   -5.63711033382084
C         7.40821793461897   63.89551308566077   -7.26700542438933
H         7.95069424067828   63.15519897350885   -7.84219364869317
C        10.64209995091768   63.84702115054793   -7.14169632813668
C         7.99515144085069   64.45567788505626   -6.12890325401946
C         6.14896237755801   64.30224618843086   -7.64851458660048
H         5.67526164219510   63.87580541249154   -8.51931410970783
C         7.37152661459733   65.43078830460020   -5.32378988694534
C        13.15967963289505   64.91955876636558   -5.02054721228311
H        13.15160713596728   64.49747141343674   -4.02557207352513
C        10.98413917204649   64.53398679743967   -9.41633666216836
H        10.72535208256624   65.16816471742615  -10.25039891929664
C        10.31657470372969   64.67443916378994   -8.21507519249855
H         9.53606315536534   65.41382068063479   -8.10413607709959
C        14.15279196490448   64.56707952259667   -5.91437209661336
H        14.90561575049585   63.85001889745959   -5.62460005396637
C        11.63879483340665   62.88707748450587   -7.27789803277692
H        11.88390996466852   62.23486465049081   -6.45291868067666
C        11.97660402404608   63.57554797536302   -9.55297421562528
H        12.49073737431705   63.46228952176013  -10.49481044368771
C        14.19151222149353   65.14624667991873   -7.17214121282557
H        14.97833527127739   64.88840247933989   -7.86362572507188
C        12.30422524565958   62.75831121861187   -8.48386262610552
H        13.07359953877337   62.00918148404214   -8.59062529455879
C         8.58016566973131   60.15915933490876   -4.60518020503383
H         7.74568719838316   59.49573326061293   -4.77303559955453
N         7.06686775420226   64.67974665359328   -2.46285663775470
C         9.92328223159362   64.69308853998126   -2.95525759417774
H         9.54181751752236   63.72402152695313   -2.65034880432318
N         8.45230689530298   66.68379655812566   -1.38568263206912
C        10.02581086589733   65.12202708735592   -4.30664511939660
C         7.20094880057369   66.69450367330106    0.63967673549007
H         6.41881612294816   66.27985045039894    1.25283597425718
C         9.11341135090844   67.74789418044337   -0.96456881638852
H         9.86608227321138   68.13827103242062   -1.63634532507965
C         7.50107605615994   66.14589544043088   -0.60732435475757
C        10.90999987484538   65.38005693541464   -2.17197643130714
H        11.05798309884987   65.18690334578930   -1.12351723711486
C         5.97670225949248   64.16952996335135   -0.39034894170058
H         5.79685856632658   64.41265177133165    0.64334817245729
C         6.81608198395519   64.97041705197672   -1.16289813862300
C         8.56066294545182   61.43684483990636   -5.13747054390608
H         7.71555266111668   61.77293399958802   -5.72147950079776
C         9.66881228688312   59.73162337659308   -3.86291830137006
H         9.68173367267490   58.73472535121063   -3.45032448362198
C         5.65060340525906   62.75636647446240   -2.27264871710435
H         5.21411202659713   61.89697553029009   -2.75439972535210
C         9.63510256223298   62.29124538548059   -4.91983402704472
C        10.74367518370832   60.58147770850414   -3.64853196593382
H        11.59181402752354   60.24568402499477   -3.07130778239175
C         7.89369669801661   67.81049158294009    1.07436848719356
H         7.66176576157266   68.25604693522290    2.02933139683080
C         6.49521157990755   63.58765403647930   -2.97883584553656
H         6.72158853837168   63.37936804068616   -4.01537558321990
C        10.73043811590789   61.86023127344407   -4.17340454970009
H        11.55974136185950   62.53324548152101   -4.00206621477215
C         5.37617444152565   63.05572618622089   -0.94519592027214
H         4.71685149321301   62.43665709675527   -0.35833736062987
C         8.87681120977494   68.34979638413603    0.26007965154228
H         9.43572824183330   69.22289306809871    0.55489144115009
C        15.73073727930069   70.05686977473491    0.35700886091374
H        14.84622613293894   70.62184804916082    0.66649998415919
H        16.60821354606986   70.69661939661951    0.42755725756831
H        15.86089115676924   69.19062245767996    1.01234159979796

