47
CSD_code = ZUJFEP | q = 0 | S = 0 | Stoichiometry = C8H24B14Pt | MND = 8
Pt        6.75224226552226    5.47400167547386    6.71315001176168
C         5.29785791689521    7.62980558967458    8.23317031834235
C         6.51317476318977    6.81779957484873    8.47656809910179
C         6.56712656159316    6.11787865456132    9.81949048463606
C         5.74172800023400    7.04842933840179    5.64634779021015
B         7.31284029269441    8.91968016491892    6.89544228144137
B         5.54509794215549    9.12428960045649    7.40752801524454
B         6.76654102420427    8.51986158050341    8.50051659818693
B         7.75168602522620    7.30825186673702    7.59058697819183
B         7.26269794832451    7.54930145267920    5.79596646272570
B         5.94356134334859    8.74694614576083    5.77760047342579
B         4.73570507892722    7.66332371306317    6.68325422276616
H         8.10378215402601    9.78000531153697    6.76183338884336
H         4.93692745592132   10.06560077806888    7.76112620248859
H         7.02142425096796    8.96571394411482    9.55421557916007
H         8.84832184014586    7.00943211549086    7.90668660287977
H         8.05602245844869    7.41859032477768    4.93195448506777
H         5.69361372104576    9.38325346514677    4.82345343357949
H         4.55001431392117    7.60028470259390    9.01905691240129
H         6.18091524804966    6.77987871684714   10.59606056066713
H         5.95962291583820    5.21472291725052    9.83558785593861
H         7.58768855107881    5.85658277307607   10.09233357345604
H         5.35497057439807    6.68757944985877    4.69792097422142
H         3.57085858628472    7.64353823689558    6.51716007520766
C         6.99120597527932    4.13016755145330    4.94980407901616
C         8.20652109636671    3.31817276153871    5.19322429131801
B         7.95928828430601    1.82370731087508    6.01890038333548
B         6.19156381560817    2.02835150554655    6.53100411131777
B         6.73783131180532    2.42811231899065    4.92591048018281
B         8.76868844577199    3.28468294571192    6.74313969116334
C         7.76270335734948    3.89959565605726    7.78007338868983
B         5.75270595515023    3.63975538409324    5.83581925373829
C         6.93725823617715    4.83012241672387    3.60690180878375
H         7.32347399687296    4.16813053048526    2.83032983881792
H         7.54475330167963    5.73328412857830    3.59082028367944
H         5.91669422524819    5.09141106668015    3.33406381199109
B         7.56084766096825    2.20107849473481    7.64883158870286
B         6.24172078465941    3.39874322599870    7.63044521756463
H         6.48292552735239    1.98225078291735    3.87222182753479
H         5.40060644167164    1.16800061432049    6.66457543946247
H         8.56744193291907    0.88238946881797    5.66529246323794
H         9.93353624153561    3.30445784239477    6.90922730570486
H         7.81080850447847    1.56476772053793    8.60297241300274
H         5.44839951115038    3.52938516639449    8.49447218362179
H         4.65606498516470    3.93856288258315    5.51971941504439
H         8.14947910114163    4.26042476001609    8.72850419609505
H         8.95436007490199    3.34769337181272    4.40733514804891

