74
CSD_code = ZUJGES | q = 0 | S = 0 | Stoichiometry = C29H39N4PTi | MND = 5
Ti        5.61501375950014    9.22646061594086    3.62526982557459
P         7.28899913198728    7.38751847411434    2.76651612545417
N         6.86109977432365   10.26163464618146    2.56127700299435
N         4.50561877469350    7.96637878838053    2.63565981921330
N         6.30821099333843    8.51642114517739    5.30671971944889
N         4.28377835370084   10.42712231464085    4.08280922533665
C         8.04262239099904    7.63966054374664    1.09278527318489
H         8.94939342791778    7.03398236505317    0.98964688473646
H         7.31178770299600    7.30571130512180    0.34850402368501
C         8.33909699102599    9.12220636422379    0.88617735990454
H         8.68110873666727    9.29099428824471   -0.13868475907190
H         9.13707129711439    9.43459847837190    1.56488871227574
C         7.07985787388099    9.97566895399913    1.15700194944661
H         7.14364016303669   10.91489607543278    0.58442873799975
H         6.21115951857534    9.42130241364681    0.77553315993231
C         6.70642485792655    5.63399980309695    2.58687943477646
H         7.33374669420979    5.09643486550133    1.86819561396700
H         6.80535663806738    5.15026211174377    3.56394455648840
C         5.23953755899531    5.62792549513712    2.16567872791141
H         4.83513988569465    4.61441724648459    2.23630970177322
H         5.14887749628928    5.95775366203362    1.12782970095528
C         4.42948964491160    6.58656522920798    3.06677541034099
H         3.38108260062546    6.25098807943658    3.12186341353436
H         4.85718898132168    6.52504125553263    4.07789624130153
C         8.80398766539270    7.10341592151292    3.79023087535406
H         9.26068819998841    6.13727008839199    3.54970007149539
H         9.52436798578134    7.89642330475327    3.56491113936365
C         8.40817767139480    7.18230041453968    5.26245471941165
H         9.29776326772239    7.06135858690876    5.88691615087683
H         7.71087718226733    6.37652127917472    5.51065414684524
C         7.73591438690022    8.52933414683833    5.59962619805610
H         7.89096659700960    8.70822133338237    6.67235121442291
H         8.27039551755700    9.32158219777935    5.04956084355939
C         7.64767132846061   11.21374905836487    3.14457859945229
C         7.41862375533367   11.53546124562003    4.50286387332926
H         6.60083186828426   11.03381889670769    5.01651052200898
C         8.17703894179011   12.47866296854832    5.16078199843967
H         7.96772164510662   12.69876403818698    6.19894821608230
C         9.19683435446610   13.15440207666958    4.50498604585968
H         9.79086252515433   13.89172453801675    5.02259817615107
C         9.42718552607892   12.87114766745792    3.17065592417097
H        10.20872005028867   13.39510948865912    2.63758245048221
C         8.67790122096689   11.92586826797102    2.49701208245498
H         8.89689172253851   11.75351044062428    1.45416982537707
C         3.73769481923169    8.34398205150022    1.57185091720330
C         3.76783458598756    9.69177531325782    1.14695168104331
H         4.38179679447982   10.39716307469841    1.70047577415613
C         3.01992547767329   10.12920010360075    0.07562190720218
H         3.06869372083006   11.17037310682815   -0.21394153260957
C         2.20889424353846    9.25474562742427   -0.63366788564344
H         1.62913210505184    9.59958650277548   -1.47616954753987
C         2.15699955517429    7.93163485767497   -0.23311840117670
H         1.52692767237557    7.23277938736228   -0.76643137089381
C         2.89923393714952    7.47784702208863    0.83941147238422
H         2.81442026273843    6.43526770516008    1.10647924060668
C         5.47495219403550    8.80694143307853    6.37175631929105
C         4.27542531755788    8.08849882175161    6.52812968014685
H         4.04314697940636    7.29744021123279    5.82455172329525
C         3.41097025733150    8.34467332091474    7.57306470023823
H         2.49999064523896    7.76916249281063    7.66453698512880
C         3.70936503676767    9.31662986370592    8.51453234430431
H         3.03345558525987    9.51432203981812    9.33272622716703
C         4.89418861358600   10.02406922326386    8.39431047744761
H         5.14183630194340   10.78482669842924    9.12192600086094
C         5.76662519607750    9.77463719045044    7.35431982228134
H         6.67826504018915   10.35483341750126    7.29117103014166
C         4.28648971139980   11.86880941810112    3.99207510579179
H         4.18029179770317   12.32914785957777    4.98994507767560
H         3.43779852034729   12.22252087265792    3.38188207636468
H         5.20836586243212   12.23956986929407    3.53755472143351
C         2.96173277359872    9.97412386443209    4.44029949063338
H         2.90710415911601    8.88338279307640    4.41332497476462
H         2.20798872370044   10.37411357934658    3.73910161623166
H         2.68422944979734   10.31375179762348    5.45243043770860

