47
CSD_code = ZUJHAN | q = 0 | S = 0 | Stoichiometry = C19H23N4Ta | MND = 12
Ta        1.40683442770963    1.57893279950570    3.24447558730318
N         2.04159508420562    2.18634551636875    4.85683420816595
N         2.59930608922278    2.79082662328218    5.75641546600584
N         2.59164898258300    2.61024007665558    7.01086054046172
N         5.50875861784293    5.92581823044840   10.38751280109397
C         3.44461354294695   -1.19658165215948    1.93961135361234
C         3.83922607385899   -0.09939179167059    2.64649305431752
C         3.33472856748402    1.08819334948480    1.97769330082711
C         2.68548723983016    0.59723672505281    0.77419351096399
C         2.73530773954814   -0.76625713121146    0.77884049195921
C        -0.55669651461406   -0.92129422706011    2.03769255659038
C        -1.49599352396568    0.11873393155522    2.25670710177063
C        -1.29733659018635    0.63473200798418    3.51702902099610
C        -0.17095450046525   -0.04445416216842    4.10968832063356
C         0.22793611156796   -1.05043272078136    3.15948083230528
C         3.33302046991273    3.46583087059537    7.78536902808856
C         4.09642822632941    4.53654909785820    7.29692793749995
C         4.80850011791703    5.34221741865247    8.14905598568290
C         4.79922657301475    5.12391077802889    9.53967902081088
C         4.03187356757532    4.04824178410907   10.02241239078334
C         3.31947782968442    3.24386751846578    9.16794586381372
C         6.09386558170085    7.16123618785371    9.92973648729590
C         5.69913542630056    5.56152169892864   11.76937542107285
C         0.43810421183903    3.39822760403511    2.28042645211087
H         3.63289465745420   -2.22539337245045    2.19393047452326
H         4.43996290936490   -0.08032928061945    3.54289388690269
H         3.94212866433858    1.99093187558952    1.94206979146221
H         2.29044708763709    1.22841243369321   -0.00802378149200
H         2.31312276697968   -1.42502913799440    0.03974888938292
H        -0.48474131986623   -1.50828330640258    1.13797833287134
H        -2.24521814384288    0.43370904523665    1.54938969472092
H        -1.89907085060069    1.37833384849926    4.01714370894271
H        -0.05751675733639   -0.16756600600969    5.17991652405093
H         0.98164767144299   -1.80053078092248    3.34080903150585
H         4.11943834070394    4.71358390824130    6.23136677622549
H         5.39752919719630    6.14263878634303    7.73108538559287
H         3.97916855306129    3.85252509630892   11.08084043765259
H         2.72927754152776    2.42571720969558    9.54989966842506
H         6.32201357297359    7.79105240494166   10.78725480216099
H         7.02023534829284    6.99133412681761    9.36908963892196
H         5.39356241457855    7.70367387170031    9.29237874081522
H         6.52682166507758    6.13476335675031   12.18212004841156
H         4.80524066446083    5.76205858911808   12.37098783988250
H         5.94822027720285    4.50240338658222   11.85533585136368
H         1.18300195922105    4.12976086298941    1.96288825144564
H        -0.10431095325297    3.06634551482860    1.39239533471573
H        -0.27224861836966    3.91583703300640    2.92494393751553

