39
CSD_code = ZUJLUL | q = 0 | S = 0 | Stoichiometry = C16H20Cl2Zr | MND = 12
Zr        8.50331647549700    2.27253418479218    8.31859816912299
Cl       10.66755376628819    3.03143039995286    7.90140974444433
Cl        7.75723129606215    4.35427540523611    9.06279101007305
C         6.84509154682496    1.05303673734835    7.00983490831396
C         6.56573788734757    2.43511359082911    6.83498725832786
C         7.63062129913001    3.02237031930137    6.10755984648511
C         8.57357047450547    2.01416526328820    5.82698464943054
C         8.10383440427978    0.80540252165010    6.39173252811195
C         7.50011838150293    0.58144382882175    9.68224385649018
C         8.71892244953154   -0.01432773434896    9.24829889959896
C         9.79854317953822    0.68216804508209    9.83116160782473
C         9.27124941464494    1.70812730717268   10.64035904046476
C         7.86076337928274    1.64212346402928   10.56388935320359
C         6.07596129950867    0.20292360012975    9.28261539744282
C         5.95500108831389    0.03215752114192    7.70738009032825
C         5.14618203703514    1.32581845254184    9.77474862756410
C         5.68481940479272   -1.08462194224328   10.02653950285005
C         6.34010100445478   -1.38461234599155    7.24698552799753
C         4.51076707500023    0.23653450843494    7.21434180226936
H         5.64856879973725    2.95299479229214    7.08654021585785
H         7.66126257105789    4.04510451616051    5.74888695013124
H         9.45569030102354    2.12149669212568    5.20706707684999
H         8.56361689235555   -0.16059014721262    6.22653095081660
H         8.83108839752126   -0.93574847301766    8.69471457608333
H        10.84368960613351    0.41084657519990    9.74887075711727
H         9.83889532536096    2.36949393957000   11.28487122837013
H         7.19731891783302    2.25108321381782   11.16450575158592
H         5.20288580425659    1.39485225260191   10.85851177827372
H         5.43302642247698    2.29230562259128    9.35061399328269
H         4.11114591829564    1.11164430935993    9.52824612449363
H         5.70318840924504   -0.89714607441127   11.09780433116574
H         4.68192022749559   -1.40374268956547    9.75492897654086
H         6.38170319599679   -1.89081994055590    9.82166699556455
H         6.38965826730513   -1.40435845597814    6.16042251820223
H         7.29567034633022   -1.71452827150356    7.63784862423755
H         5.58330328625368   -2.09959949684553    7.55685180461843
H         4.47058729870374    0.01163564650737    6.15073112056647
H         3.82830344888537   -0.43731870764436    7.72662066404581
H         4.16459070019286    1.25513156934193    7.34650374185230

