113
CSD_code = ZUJLOH | q = 0 | S = 0 | Stoichiometry = C52H46N8NiO6 | MND = 6
Ni        3.13004288198213   14.29426401650972    8.09991302526315
O         2.29038350571392   13.82873456689126    6.38843306426527
O         2.80627299548673   15.69508249559647    5.30525974430986
O         1.41374754689567   14.27497959475507    8.87462395462091
O         1.49791695706317   12.69052682052004   10.43781357618377
O         2.86981796702477   11.22568271554919    8.84307407560223
O         2.73483586899114   17.41323822907448    7.21197993314993
N         4.75422205825845   14.28343668561814    7.23361480229690
N         3.67446180891952   12.17600715641308    8.30696849752497
N         3.81357525899845   14.78550331267840    9.95527806684450
N         2.90213902553165   16.55568992448600    8.24634106797797
N         1.32360847246692   11.80183837478337    5.00809650312750
N        -0.19387191570021   16.30137974536142    9.28001243928452
N         4.85974656384578   10.75062065063182    5.23753519030879
N         3.79775572604938   18.69020444168682   10.95705185678923
C         2.31457195783118   14.55309752860293    5.33972093299987
C         1.71637440332001   13.99755086731561    4.09281035140730
C         1.60800035019452   14.87310407935874    3.01294991842249
C         1.03771221211358   14.48395670363374    1.82128498298084
C         0.53097660431713   13.19550274469282    1.70606245104926
C         0.62806845300204   12.31071180999522    2.75500312165074
C         1.24540350771462   12.67324943789331    3.96230222249567
C         1.22228099888442   10.41593805695429    4.97173265307316
C         1.70530284338466    9.68613149845339    3.88734297575975
C         1.61879452872785    8.30888138263269    3.88452582978053
C         1.09602667700402    7.64693883646072    4.97972404466310
C         0.63610438956891    8.35461935998440    6.08304737165306
C         0.66557018802991    9.74850630679220    6.07386130367499
C         0.10660533925375    7.60866885658801    7.27252469961016
C         0.11753390395961   10.54117806836319    7.22164792174458
C         0.96197956343275   13.68108090834322    9.90555808235540
C        -0.28753633208091   14.22651287758100   10.50845099531832
C        -0.94084966434422   13.42962200596121   11.44599285288796
C        -2.09549619928226   13.85039585683809   12.06964635783763
C        -2.62834910833054   15.09088156220158   11.74182823813171
C        -2.00162519250117   15.89856319908296   10.82079343452143
C        -0.81315557491717   15.49769650818279   10.19317399894531
C        -0.44442384571112   17.64670255166283    9.01740755366848
C        -0.58875200517513   18.02901990014952    7.68359757933593
C        -0.82764592221538   19.34691529833124    7.35635363878083
C        -0.93510816297617   20.29458012583441    8.35942402636752
C        -0.75064476649827   19.94275242343520    9.68925169833560
C        -0.47115486618340   18.61677321361565   10.02920336512385
C        -0.82750693434672   20.99570483485926   10.75444631090026
C        -0.14965371606525   18.26710090090453   11.45221477961346
C         5.45259703293331   15.36160033336420    6.90390768225126
C         6.61223021923296   15.30570536024145    6.15129801407558
C         7.07607307168300   14.06680254148463    5.73825135391772
C         6.36403887573068   12.93931066084397    6.09832751863372
C         5.18917404961251   13.07273868006862    6.83627034581261
C         4.38725398572127   11.91365679126529    7.25765577189877
C         4.42551653351640   10.65641554696762    6.49716024276666
C         4.02891297801971    9.43397144409885    7.04486836024002
C         4.10045165400923    8.29749531533547    6.25839688992935
C         4.54935346912368    8.40585410065455    4.95377664527740
C         4.91127861076635    9.66548820423453    4.49651756885881
C         4.11796215490713   13.82283821733579   10.81676097385422
C         3.91256891429637   13.93083618991926   12.18184732743619
C         3.34540218592493   15.09460314361271   12.67247218093810
C         3.06361174834217   16.12022665108479   11.78843523344378
C         3.32638011090574   15.94488809437208   10.43302284354220
C         3.07254988710306   17.00431179461585    9.44047271904296
C         3.10098194925248   18.41793464595775    9.85079056516661
C         2.46570481013281   19.42122004485829    9.11627370660571
C         2.56157442523795   20.72946897771156    9.55970080583756
C         3.28625016650575   21.00423655318778   10.70753035263350
C         3.88528184846619   19.93837974028681   11.36554891341670
H         2.72569716337846   16.79110667407956    6.39583226401347
H         1.59033206448576   12.23621009521807    5.88883650130430
H         1.04905495033237    6.56718304490090    4.98239471415926
H         1.97944995212586    7.74972835098176    3.03322611261900
H         2.16880179218768   10.20482071387158    3.06198470709567
H        -0.96560630081534    7.76986990838492    7.38568836612818
H         0.59470770611795    7.94742842722030    8.18474154783040
H         0.27742416417232    6.54065905785609    7.15935382490587
H        -0.23310159079752   11.51518138659257    6.88804677480286
H         0.88872710357346   10.69707656418108    7.97521420202001
H        -0.71244340651855   10.02340213584085    7.69400027328950
H         0.19673098705148   11.32509597584191    2.66826147879930
H         0.04588206974128   12.88474881990360    0.79166290529635
H         0.96826548192279   15.17584391148016    0.99589980510986
H         1.98592676798225   15.87617174678238    3.14298445474026
H         0.42272348501151   15.80861397254004    8.64045285841390
H        -1.04009334796130   18.29044203061367   12.08096034257544
H         0.56254352315077   18.98579313766642   11.85770457087871
H         0.28399447706197   17.27352670366943   11.51952199778085
H         0.14843591198103   21.14739119758034   11.21742201154955
H        -1.52458444774940   20.70337889836349   11.53822870703400
H        -1.15639939591065   21.94227911168069   10.33287090003479
H        -1.14920852506501   21.32293556210592    8.10614887175196
H        -0.94186643966344   19.63502007584595    6.32213025405078
H        -0.51291683441210   17.27549947065669    6.91382837777278
H        -2.43527091673256   16.84752546463613   10.54343132324172
H        -3.54821699035207   15.42222148866897   12.20226536145195
H        -2.58698363344433   13.21852986769305   12.79337548877240
H        -0.50974705314048   12.46535712541807   11.66988641149200
H         2.33253896965833   11.74613842903266    9.55606367407122
H         5.07945198031647   16.31682557228764    7.24078466716900
H         7.12970777115713   16.21549527132749    5.89385881782551
H         7.97717242722461   13.98056371996966    5.15048979661236
H         6.69167605892048   11.95765036728901    5.80247783132315
H         5.26828470788301    9.81396799681465    3.48506257007281
H         4.61878153778920    7.54392712549819    4.30983630022455
H         3.80666570343183    7.34031277502623    6.66243100475850
H         3.68602565206668    9.37094279618529    8.06290492104218
H         2.64235933461794   17.04755225995781   12.13605893659746
H         3.12879683278077   15.20497554061023   13.72420100105619
H         4.17018054690138   13.11210418143328   12.83363639006864
H         4.55053550529060   12.92482343978361   10.39714196609399
H         4.46479628625239   20.09013344959156   12.26783290509726
H         3.38678748762608   22.01070257599033   11.08362510914998
H         2.07206378587048   21.52055729854339    9.01138837838105
H         1.90470966150704   19.18677681385726    8.22918481512363

