99
CSD_code = ZUJMAU | q = 0 | S = 0 | Stoichiometry = C44H44N4NiO6 | MND = 6
Ni       16.79066382087489    8.59826062492679    6.83363697784774
O        15.62355737356142    8.68002378526191    5.41475521530075
O        15.87316025872105    6.72250057661632    4.38858902881244
O        15.51132382078250    7.14177152835712    7.92778439941197
N        15.72122717188784   10.39109766968593    7.68595224286990
N        13.40852080769865    9.99508377810728    5.20966036188718
C        15.20930440923622    7.73346510924666    4.66139148755101
C        13.82771339188415    7.88009404096775    4.11170412506534
C        13.36072615788389    6.86982131489378    3.27436155847293
C        12.06692470607786    6.87036482141834    2.79856426366613
C        11.21096570433386    7.90287151025080    3.16101349511660
C        11.65042379487781    8.91908663192412    3.97899040002522
C        12.96327441234080    8.93620293563871    4.47036670670150
C        12.62978318582777   10.85878738171101    5.98410526855104
C        12.86747244175919   12.22622296178768    5.86383273514789
C        12.13094560872063   13.12846372891095    6.60249162766592
C        11.14312062994993   12.67095508655114    7.45669234718966
C        10.91253076141964   11.31120999517357    7.61542430316956
C        11.67835886089333   10.38784233816676    6.89971526669257
C         9.85157453516286   10.84603766847477    8.56917671834950
C        11.51929088882697    8.91599078909168    7.13403740444014
C        14.70586667563360   10.36807678144016    8.51690780080257
C        14.11718888631728   11.53190072914613    9.02591980191028
C        14.60701973849734   12.75219118541432    8.63289785567178
C        15.69206615878932   12.80186430988364    7.74065505676728
C        16.26226327509661   14.02240808698545    7.27810291873583
C        16.22502441140752   11.57233497236205    7.29501939700864
C        14.85247298265673    5.99326946485508    7.44406250333131
H        14.41026474820263    9.97905638603147    5.38588874648882
H        16.27923830941495    6.85216057972444    8.51542551553684
H        11.72247991286711    6.07743973860761    2.15255017516346
H        10.19527682224221    7.91689726054890    2.79170760577712
H        10.99439754046571    9.73774037237887    4.23778915512888
H        13.62970875401626   12.56336443017635    5.17657876299240
H        12.31048979499575   14.18861921096698    6.49903137668105
H        10.54711692351006   13.37844564778858    8.01514927228732
H         9.17703129593700   10.14356018638479    8.08305023979355
H        10.29540861175256   10.34181732000495    9.42817028144640
H         9.27048592101726   11.68920772864016    8.93423506756512
H        14.34256522497634    9.38900493258100    8.79628367688626
H        13.28580206883481   11.46073896156830    9.70819868905395
H        14.17435681893187   13.67256830682861    8.99708638330361
H        15.83523029977248   14.94923885832704    7.63251798886939
H        14.00405612037801    6.31698269364428    6.83813846469930
H        15.49959970947995    5.37125403682619    6.81886811787921
H        14.48240057843480    5.39294923610273    8.28263925027626
H        14.04621729614381    6.07551544799789    3.01910875917208
H        11.28483682692896    8.71632022608787    8.17675272415441
H        12.43796500954748    8.39248496761251    6.88062417557156
H        10.71843762711893    8.50128654670927    6.52057211789567
N        17.84701563270642   10.39477675864522    5.99008491845198
C        18.86081915647660   10.37537453031025    5.15700006347342
C        19.44891455383380   11.54151009214271    4.65276072941119
C        18.96082108991673   12.76001730828241    5.05341518208569
C        17.87726338749576   12.80569203283842    5.94765321743563
C        17.30826519270143   14.02423180858483    6.41698580060110
C        17.34401252405126   11.57423847713769    6.38760771002587
H        19.22311194601386    9.39757035446541    4.87190254170904
H        20.27874423500708   11.47343238149013    3.96831011213150
H        19.39348176578005   13.68200206540333    4.69334874763863
H        17.73604945315667   14.95254601795996    6.06740681942933
O        17.95844216711791    8.68006466076356    8.25235631750492
O        17.71230216364684    6.71951926821277    9.27372259778202
O        18.07636639147257    7.14423806094131    5.73364203433550
N        20.17143754591191    9.99967356554294    8.46216748624938
C        18.37459903700019    7.73212328971460    9.00290164558147
C        19.75697178140387    7.87823872744218    9.55064105402915
C        20.22748520387755    6.86444864707277   10.38177548626772
C        21.52313624739929    6.86335862971731   10.85248590760419
C        22.37758811930601    7.89736349627868   10.49073337487418
C        21.93454288234991    8.91706162310046    9.67904718717636
C        20.61951808600813    8.93633400808119    9.19369046018963
C        20.94899364109023   10.85870562655479    7.68066347934619
C        20.72270242392143   12.22767128231568    7.80413165101275
C        21.45927804455549   13.12484965973267    7.05928709181080
C        22.43571023538714   12.66049974669365    6.19574511036830
C        22.65470525705017   11.29917681741812    6.03404483843370
C        21.88853232353737   10.38116408909133    6.75622931821393
C        23.70341015927535   10.82686898464636    5.07026447059782
C        22.03426508048817    8.90817466671531    6.52043374118144
C        18.73473102491355    5.99419585197966    6.21442294563876
H        19.16949427279328    9.98268069696699    8.28710599618020
H        17.30850795321459    6.85604995309529    5.14565995176867
H        21.87037975342442    6.06767522977952   11.49359011831689
H        23.39498691863675    7.90960693381046   10.85534945550369
H        22.58957044289656    9.73654406408220    9.42026030928755
H        19.96940516337948   12.56998851950311    8.49860479339651
H        21.28879421806003   14.18627221179968    7.16502420971367
H        23.03183095949865   13.36389474623356    5.63224570107173
H        24.37738913922908   10.11936322362120    5.54982065436758
H        23.24802875991094   10.32631399200103    4.21517673482190
H        24.28712962654847   11.66602811486928    4.70020110003310
H        19.58116007466652    6.31590743909893    6.82414732051088
H        18.08621523703345    5.36917699291951    6.83513734319858
H        19.10770846392682    5.39754952981656    5.37449639849756
H        19.54336906816906    6.06860786715597   10.63591172603552
H        22.26461563471410    8.70684273093757    5.47718722144085
H        21.11144668033624    8.39278487277292    6.77555165272703
H        22.83261979424807    8.48613746918118    7.13218945776342

