90
CSD_code = ZUJNAT | q = 0 | S = 0 | Stoichiometry = C29H56IrO2PSi | MND = 5
Ir        2.93973923481545   13.26626928621811   -0.13262378483631
P         2.62995851410440   15.12846256685046    1.19764438838964
Si        2.22660960011257   11.40712648230442    1.16016935137557
O         4.98043271092025   13.41263329974597    0.36379838139026
O         3.49398765388303   11.98278182559233   -1.63534618126693
C         5.94342370532064   12.85965615887000   -0.21834669731402
C         7.33835972496739   13.17754574362438    0.28979232042503
C         5.85268627567075   11.97738355461590   -1.29972371614449
C         4.66133112163343   11.60434603556223   -1.92433163536355
C         4.77482471974928   10.64190393518988   -3.09168454344165
C         1.91675233066148    9.84048180677220    0.05004922059182
C         1.38579779139177    8.62843068524379    0.80978814658366
C         3.55785535379280   10.86824673331250    2.48111346607166
C         4.74113833199205   10.10906867632646    1.89454346767530
C         0.58214607721367   11.64809234915519    2.18017653771696
C        -0.64965109195381   11.85466868478986    1.31014831364602
C         3.30736119426200   15.29551152065226    2.93796991444010
C         4.78089461000825   14.90354082429995    3.02984158887677
C         5.29124463100592   15.02991026359930    4.46355776224259
C         4.47103807749675   14.16330221610764    5.41143463082000
C         3.00093065819984   14.55567025637494    5.32851410712064
C         2.49646236328734   14.42019462524287    3.89353365670928
C         0.89220381944960   15.81055300648891    1.40366897482094
C         0.26209254701200   16.13209130671103    0.04884274546222
C        -1.24178965712972   16.34059832287218    0.20587936233637
C        -1.51676419707215   17.48058374497909    1.18178324379394
C        -0.85080395755400   17.20009829626031    2.52470859651145
C         0.65423887055653   16.98419675690630    2.35570277303431
C         3.67976210761950   16.37820868546022    0.28255680314018
C         3.52221948291701   16.23367839176984   -1.23214981337121
C         4.61022784133258   17.02917889465002   -1.94766479404857
C         4.53904448842022   18.50101656155397   -1.54925709845257
C         4.65678138085719   18.65297001875051   -0.03510160836648
C         3.56580300717548   17.84918189257771    0.67335392915364
H         1.51785499972855   13.30010350450083   -0.69427162252868
H         7.27972449205649   13.85115509550945    1.14210410732932
H         7.84041248860806   12.26075894396191    0.59277574090440
H         7.92759304380766   13.64331921504933   -0.49869186646507
H         6.77214377122414   11.56360756857889   -1.68607694776570
H         3.78709562655024   10.45805171619063   -3.50629920785978
H         5.42220326697705   11.05504111000148   -3.86265758669547
H         5.20409937462352    9.70102706318234   -2.75272590676977
H         2.84568280867523    9.56688872922409   -0.44857668800474
H         1.21691339586896   10.10467226610620   -0.74085981335563
H         0.41748546873106    8.84449152436321    1.25139227565986
H         1.27013767362049    7.77720624494928    0.13948623184949
H         2.06487414706245    8.34047228302520    1.60824551473486
H         3.94090790524278   11.74198055034417    3.00593571307222
H         3.07249704611024   10.24515831660364    3.23332872250555
H         5.46531206480260    9.85662226795854    2.66967041775047
H         5.24545261176562   10.71044772828524    1.14344729361759
H         4.41583086807505    9.18623964118632    1.42241187915155
H         0.43677251848914   10.76495550556166    2.80135334101690
H         0.67135318766871   12.49216281882995    2.85965733510202
H        -0.50505957844302   12.71489401844175    0.66376898401935
H        -1.53677707727759   12.01471240201064    1.92219813694279
H        -0.82280073641070   10.98859194437727    0.67957871474160
H         3.20942073638550   16.34727373592691    3.23530612620902
H         5.38818673353504   15.54410205472675    2.38809064531163
H         4.89680937000974   13.87610266679087    2.68449395755818
H         5.22566712739940   16.07425939659828    4.78209233595503
H         6.34261937691731   14.73614424851368    4.50539785981298
H         4.58077917486999   13.11352766496324    5.13202966161712
H         4.83545483175153   14.27882240882249    6.43449710345817
H         2.88204764777837   15.58929807822115    5.66517047575036
H         2.40596821243717   13.92000901465940    5.98721948638239
H         2.58988069757291   13.38264510105532    3.57228833208332
H         1.43936869018518   14.68562672019782    3.85680337546514
H         0.36032520582337   14.93482785999347    1.80036600059724
H         0.45624065080959   15.31212377211001   -0.64461945420966
H         0.69984575356234   17.04542240275628   -0.35810851085133
H        -1.69604759798890   15.42109800343007    0.57933377866089
H        -1.68889615975305   16.56535042789894   -0.76441306731637
H        -2.59250692363554   17.60583631360182    1.31969192976283
H        -1.12353126247838   18.41373885862944    0.77070139882721
H        -1.29493208250030   16.30566511784106    2.96711143048993
H        -1.02634806638791   18.03433478899055    3.20796714751073
H         1.09764427321707   17.89603381748981    1.95579151254582
H         1.09032221436478   16.80012879272827    3.33676080972317
H         4.69699635914167   16.04071900104443    0.52170205854446
H         2.54268006870046   16.59113720444648   -1.55250626477257
H         3.59252485981214   15.17762965525030   -1.51669414305057
H         4.49443938660270   16.93080827936529   -3.02958785882323
H         5.59216755783756   16.62893694888886   -1.67986917114376
H         3.58525052225329   18.91829911610125   -1.88150635564030
H         5.33704106242531   19.06040564978682   -2.04231543189192
H         5.63845204243165   18.29867587631673    0.28978334354484
H         4.57666425569933   19.70737448967757    0.23963303336864
H         2.59294570948380   18.23963178685651    0.36988795391442
H         3.66547088245400   17.97456687869304    1.75326392212286

