111
CSD_code = ZUJNID | q = 1 | S = 0 | Stoichiometry = C56H48Cl2NOOsP2(1+) | MND = 7
Os        6.17555447128278    9.40065708280515   21.47624160504197
Cl        8.03275721451348    8.05782152580491   21.85739522937358
P         6.33825283760462    9.00084253860312   19.17865294988350
Cl        4.96443642887682    7.42440674525855   21.07726392685295
P         6.66997381394368   14.13653990336561   21.83743501080212
C         5.82563027468691   12.54843983811708   21.87775861291154
C         4.51058447155236   12.39843651412352   22.21981427480105
C         6.15122392997240   15.36417024653797   23.06310034353614
N         4.36193124790288   10.14015622637296   21.43648909526244
H         3.69391644372872    9.39239705692222   21.21900280483484
C         9.22909977233636   13.44836224748072   21.01011219119578
H         8.77166913169207   13.23504006002327   20.05411803826797
C         7.00057868159084    7.48493421171352   18.42205211817594
C         8.45933136202672   13.91863417158270   22.07260718502103
C         9.75218056946826   10.97846622062904   18.31497816600179
H        10.78312103751744   10.87273070297805   18.61800997669527
C         2.29713972888693   11.18840877655047   22.16394300088893
H         1.84259479668485   10.34182719786291   21.65355361923387
H         1.84502936681163   12.10862824304231   21.79903094873399
H         2.07044711102317   11.10662586122385   23.22630008928142
C         9.06981478256257   14.22472138508891   23.28565457590503
H         8.48675389853729   14.62097142768642   24.10531504556695
C         4.73554164685356    9.24101420066448   18.35328346040513
C        10.43199366337046   14.03686087352174   23.43973535786425
H        10.90092598992170   14.27648793696452   24.38172511981305
C         6.17472958766413   10.50570876901076   25.70844551491209
C         7.32758289046287    6.33329362713234   19.12239559605984
H         7.20060813675360    6.29147052523254   20.19161995976267
C         7.46946616112308   10.21211290563927   18.38922897116176
C         7.39882477889928   15.84325202826709   19.77622282110063
H         8.09616773333278   16.25848437205011   20.49172599377663
C         3.75564672919613   13.51242443468482   22.83442830066772
C         4.10979341933277   10.48091236019522   18.46752276926131
H         4.60697631673274   11.27180083834317   19.01412236534584
C         8.79993571128860   10.10046627569663   18.79428980425345
H         9.06933189647973    9.31115049014368   19.48546842763172
C         5.09722081523582    9.80028662441913   26.25830918354767
H         4.55242629925508    9.11578504358934   25.62542063470838
C         6.55384026107911   14.80121987510084   20.15471530749684
C         3.43148371886111   14.65366478115301   22.11099407687935
H         3.71414693243793   14.72954346363125   21.06986086845826
C         5.67973699420608   14.24090309140292   19.23032512266832
H         5.03686032527084   13.42375798495143   19.52711850181870
C         5.64180886652553   14.72705771483040   17.93568482730905
H         4.96556163302752   14.28859823115705   17.21793402615513
C        11.19129813559096   13.54905324680393   22.38875249143946
H        12.25259781282850   13.40155614440787   22.51366439563774
C         7.10943274051515   11.21151351558414   17.49421948294264
H         6.08921232759455   11.29084939095068   17.14805216340911
C         7.34886257858305   16.32878608788326   18.48297053694349
H         7.99849632818946   17.13875765505253   18.18912376744845
C        10.58881549760248   13.26258698345202   21.17406183104630
H        11.17792712883751   12.89604220447002   20.34832223058599
C         8.06562819076846   12.09957609631510   17.02775552081125
H         7.78039217998200   12.87603291169242   16.33296703065687
C         2.72168554517764   15.68045774725329   22.70994388378011
H         2.46641044377771   16.55916384470107   22.13752669933521
C         3.35913837343506   13.41268505585662   24.16528379946060
H         3.61580242044389   12.52883911675111   24.73276060070715
C         6.03330219933987   14.96522993675008   24.39300685047671
H         6.17110123457058   13.92574517282351   24.66142191306525
C         5.93978936557380   16.69156139253105   22.70983442510723
H         6.01475287834636   16.99744461880004   21.67653215536223
C         2.33778912623805   15.57896965920126   24.03517834714584
H         1.78381408741080   16.37939221220486   24.50007841776058
C         5.47092467103002   10.84449794661456   28.38119979363030
H         5.20448038170955   10.97439808285254   29.41881095329031
C         6.47200839076679   15.77190218288436   17.56371154882941
H         6.44056342940824   16.15165898430993   16.55425371047446
C         6.54202871923278   11.54705624552846   27.84849866969957
H         7.10762164337940   12.22079145602828   28.47445360668148
C         2.65942054207198   14.44398286183507   24.76219246040469
H         2.35994409746768   14.36066575292867   25.79565762613241
C         9.38316959031798   11.98875804765001   17.43823583769155
H        10.12339769108608   12.68100407474640   17.06546183916524
C         5.71328967150426   15.89590411389200   25.36285541320587
H         5.62079165668843   15.58612074975013   26.39242474154246
C         7.82721812588296    5.23429474449306   18.44298098599431
H         8.08168143672042    4.34109899666474   18.99273606808003
C         5.50957262645368   17.22125572066471   25.01175995006857
H         5.26112701471326   17.94622100851297   25.77088053994181
O         5.82277269460810    9.51755185739222   23.61333868919336
C         7.63217329517087   11.05462648299422   23.65781105841040
H         7.52300361567374   12.12124437700418   23.89518117825677
H         8.56642877860070   10.69903541591398   24.09782609177154
C         3.78380821782951   11.18719005853114   21.94468497214590
C         5.61795261985321   17.61530914733592   23.68818759049768
H         5.45226560175600   18.64603893157819   23.41556129387140
C         7.66184456120937   10.86496824287593   22.15488667457871
H         8.64115517837165   10.63606428073200   21.74325556430754
C         6.73389137276785   11.51417775304104   21.32413507283621
H         7.06587610118090   11.73898417839709   20.30700068508609
C         6.49120582462147   10.29128603597282   24.29408736022687
C         7.18021126629224    7.53018121376303   17.03770821252727
H         6.92528105308555    8.42914435383028   16.49121296176710
C         7.99994612150076    5.27811906408873   17.07102112848519
H         8.38866299661773    4.41881171973051   16.54579063103129
C         7.67446428020129    6.42884457197756   16.36824706486347
H         7.80723222798187    6.46687112356025   15.29729701054709
C         2.86497541615334   10.69063983580785   17.90541751403810
H         2.38570548261188   11.65537238291804   17.99347689381114
C         4.08354673943133    8.20376361978692   17.69768492731676
H         4.54725134698561    7.23075393955672   17.63656586902884
C         2.22738821524800    9.65784310221701   17.23534132898894
H         1.25388496508781    9.81928761548317   16.79806489546615
C         2.83487330000068    8.41715783087325   17.13902275879372
H         2.33199810914954    7.60855568409409   16.63116046391324
C         6.89705114915093   11.38274339592095   26.52382036968702
H         7.74449424304589   11.92516137672256   26.13282561208390
C         4.74979664847869    9.96926094673646   27.58287353165463
H         3.92193841353820    9.41518286677843   27.99773648757033

