60
CSD_code = ZUJPEB | q = 0 | S = 0 | Stoichiometry = C31H25ClNPPt | MND = 4
Pt        4.44094182478622    5.72037225234707    9.73525939377638
Cl        2.66890151224484    7.18656738624512    9.33859783161442
P         3.32162386871820    4.06822071243726    8.68429924244993
N         5.47130487044197    7.17313319123045   10.59835943273063
H         5.13752506734290    8.13415691047229   10.67244287523653
C         6.68030789578292    6.92305450585166   10.98254923680286
C         7.55187215902190    7.97667019482441   11.52146682087824
C         7.06938787393002    8.84374635342024   12.50026436803665
H         6.06774681865068    8.71019140252735   12.88392525847282
C         7.87574740771881    9.84875578927451   13.00052904255073
H         7.49740822581928   10.50891348830772   13.76675590249884
C         9.16388252057483   10.01121947335409   12.51756008376304
H         9.79138587858031   10.79932002303794   12.90605127173187
C         9.64391772181000    9.16464274122132   11.53151731888487
H        10.64382601585599    9.29710694419659   11.14549365766775
C         8.84706487904120    8.14895985459129   11.03670553197969
H         9.21205035836053    7.50264199752869   10.25233056178690
C         7.09075554948742    5.53745458051156   10.83580938228367
C         8.29929033211459    5.02425986495790   11.30686498512702
H         8.99702689773422    5.66720381620400   11.82463570110804
C         8.59030843727789    3.68777800921855   11.12529044799472
H         9.52502710563263    3.28252400311165   11.48437585672226
C         7.67215084797527    2.86553052663811   10.48765649142939
H         7.90005215943228    1.81834029173378   10.34548038594750
C         6.45892143442305    3.36928352047764   10.04685992552051
H         5.75842027503961    2.69218982227396    9.57297374272264
C         6.12524936126105    4.71014341916701   10.20757628672871
C         4.37012086539507    3.31677079344656    7.39838070092048
C         5.29403788225515    4.18325013810590    6.81874489174815
H         5.33872263046446    5.21054985322741    7.17875611435081
C         6.13856421622517    3.73778920212764    5.82067079382451
H         6.85261801633869    4.41229362569048    5.37188467509989
C         5.16097100281824    1.55026973645111    5.98313218288664
H         5.11616566065062    0.52027327496421    5.66032681011608
C         6.07041572136882    2.41781797245836    5.40155200304870
H         6.73179426736665    2.06335818806285    4.62477082301347
C         4.30830646509556    1.99503685230858    6.97957830591999
H         3.60928004002903    1.31104423686258    7.43830576151547
C         1.80935413159509    4.48461355412026    7.76259301913714
C         1.79342833410095    4.63554700076008    6.38180980690606
H         2.69158760528466    4.45548929743733    5.80713545437176
C         0.62660566311131    5.02149266740774    5.74471323696521
H         0.61666203324667    5.13794715560489    4.67056784924043
C        -0.52024220665757    5.26770316047774    6.47966580510171
H        -1.42622077424884    5.57662167170991    5.97908061748995
C        -0.50370945638473    5.12941093728338    7.85908330611625
H        -1.39445375455876    5.33488215952764    8.43438778213780
C         0.65623131680835    4.74198955673161    8.50006588759754
H         0.68477123144107    4.64884779194719    9.57768884973608
C         2.73340011070142    2.70705485279953    9.73629868764143
C         3.19019699313453    2.66037739585839   11.04901191000966
H         3.86854276326606    3.43578541438742   11.39209579476928
C         2.77124565791577    1.64951504680046   11.89503807625523
H         3.12635376078466    1.61594878163357   12.91436896690248
C         1.89045469919437    0.68416824084930   11.43454382848939
H         1.56244650990801   -0.10650530637181   12.09318418533947
C         1.41551960567249    0.73957955616384   10.13339038035720
H         0.71573316907352   -0.00478821746441    9.78197497702634
C         1.82859941222771    1.75064912332301    9.28478325859073
H         1.43589912730536    1.81193521014787    8.27858422092464

