69
CSD_code = ZUJPAV | q = 1 | S = 0 | Stoichiometry = C24H39F3MoOP(1+) | MND = 12
Mo        1.10794884820180   -3.57038011812827    1.79880987875260
P         1.69612482803738   -4.76532123148489    3.91193975680419
F         1.41040608644530   -7.84142088396049   -1.16330930164259
F         1.81618330831083   -8.15895954341739    0.93068477963034
F         2.88506900734723   -6.63954980446067   -0.15053777496553
O         0.99987646970506   -5.57879368958750    1.53019820380521
C         0.61554628160131   -6.18916756855165    0.36548685461306
C         1.68060662801302   -7.22338878449719   -0.01322296124212
C         1.48121756489609   -3.74775617192948    5.42795280920697
C         2.27958929817063   -2.44756332593312    5.41309789195529
C         1.96402747245590   -1.55826869606972    6.61894910062505
C         2.41154762753783   -2.16393021197856    7.94382695903697
C         3.43447800602112   -5.33645993128870    4.11147295526758
C         3.77116325308647   -6.60904078474332    3.33386022023384
C         5.27135127215643   -6.91723827794839    3.35091439242490
C         6.09662574593880   -6.00721590256471    2.44863959188059
C         0.72024269300933   -6.28732509548794    4.25149877304742
C         0.89340838278728   -6.89029640812410    5.64666837747757
C         0.26585618671095   -8.28571191234020    5.72915911677256
C         1.05581599602170   -9.34687830875651    4.97209312723062
C         2.55447201363619   -3.52528324888269   -0.01369253490947
C         3.25873072514403   -3.75740126045581    1.20376859732138
C         3.19091647888855   -2.55133008898935    1.98086128081372
C         2.43089729961622   -1.62448232827862    1.25903923260393
C         2.02619128407858   -2.22849265215844    0.04069137036360
C        -0.37414118142142   -2.22805525802264    2.87649178585473
C        -0.39829356620636   -1.92029644846415    1.49318503060146
C        -0.94074406013011   -3.04562006666873    0.79124822737782
C        -1.31451772758661   -4.00018549451419    1.74131279790999
C        -0.92140954606059   -3.53830974619812    3.01527662956326
H        -0.33020418165809   -6.73962374473258    0.49738839348561
H         0.51003147640088   -5.49832675975349   -0.48483774690999
H         0.41871553605883   -3.52403317309764    5.55002742757542
H         1.79472353006653   -4.36044972963487    6.27512940161627
H         3.34717361412197   -2.67395886203714    5.41575241736204
H         2.05087382981001   -1.89358185857563    4.49894888021952
H         2.47135529881843   -0.60168777306616    6.48108716746011
H         0.89054030191354   -1.36011153802212    6.65430036932220
H         1.84686835060889   -3.06144358096720    8.18240439002327
H         3.46909396786936   -2.41529359576020    7.91200176050021
H         2.25772128078908   -1.45031183241643    8.74826111104679
H         4.09451781360603   -4.52094177180759    3.80971312309044
H         3.59104552409441   -5.50509967706259    5.18223955394915
H         3.24584932950975   -7.45248548506231    3.78140150865065
H         3.42825268921457   -6.51893374637892    2.30224987749963
H         5.64210152227837   -6.85002164990913    4.37600821498884
H         5.40983669906607   -7.94677676565026    3.01833717807893
H         7.14160287080387   -6.30288446342279    2.48337445955149
H         5.76154642309043   -6.08942993961651    1.41633444740500
H         6.03870243521417   -4.96579115661005    2.76012957853109
H        -0.33653968728782   -6.07140882796339    4.07040741885371
H         1.03335355862864   -7.00288451989588    3.48918703583160
H         1.95091514731808   -6.97166460229546    5.90267468375727
H         0.41219678285580   -6.24819533526685    6.38694269173542
H         0.21343261005996   -8.57436874521102    6.78042206277317
H        -0.75637712641840   -8.24694473739183    5.34775439167061
H         0.59419528252484  -10.32035622353779    5.11190481622577
H         1.08698109189680   -9.14450921356833    3.90412286707753
H         2.07604184755529   -9.40194611699224    5.34575466282223
H         2.58333929250714   -4.16325375794436   -0.88345212180566
H         3.99642167611777   -4.53916608157312    1.32983269281121
H         3.78964768515985   -2.32474987552362    2.85016250794188
H         2.28349806754914   -0.58604146850944    1.52469343143613
H         1.52898780542068   -1.71712823980610   -0.77206525686750
H        -0.24175010011291   -1.51935795601022    3.67989227566831
H        -0.30044346751312   -0.92756586898562    1.07335219328441
H        -1.20788896410425   -3.05921078882585   -0.25464833467301
H        -1.84597761711162   -4.92323873435942    1.54796177470142
H        -1.24156887312877   -3.97969855887559    3.95048352489905

