67
CSD_code = ZUJQOK | q = 0 | S = 0 | Stoichiometry = C21H41CrN3Si | MND = 4
Cr        3.05305420945078    2.50615266608218    0.40746797179241
Si        0.48036986270652    3.96756424715150   -1.35520871370468
N         3.64945650823442    2.50614592042598   -1.09715203071793
C        -1.42846520986827    3.99453642165967   -1.44441871930583
N         3.84543351036001    3.89354599268670    1.23081594705301
C        -4.22747611069822    4.10025743312025   -1.55486969645900
C         3.28262408685401    4.25638005863228    2.50949287981633
C        -2.18786809786605    4.25843965759235   -0.30827201292915
C        -2.11115984807991    3.78730389878663   -2.63817623160110
N         3.07837899964054    0.79156561724881    0.93049179411762
C         1.03467742663981    2.88118751809221    0.09329925155884
C        -3.56888034112788    4.31174541976500   -0.35558168958444
C        -3.49254217726736    3.83807501013648   -2.69817982080924
C         4.22668404550648    4.00879811143045    3.69934322531744
C         3.45694403175461   -0.37770581905966    0.15584523580302
C         2.76123386367639    0.55057216376509    2.31583700518355
C         4.88954010419210   -0.23311108509672   -0.36634572289218
C         1.00861459327975    5.78918540694379   -1.08384132186933
C         1.52736281329706   -0.34988000975212    2.49580661412349
C         2.77312218948143    5.70771818171770    2.52084319557266
C         1.22236270127071    3.28394654208184   -2.96738120177921
C         2.49435562210886   -0.55371101285425   -1.02306653902816
C         3.95639182326889   -0.00418242269019    3.11153170341846
C         5.06931575423264    4.58456775487431    0.85951877526929
C         6.22182509441566    3.57430923998764    0.77929824750647
C         4.91234100468772    5.29024959406330   -0.48824792494572
H        -5.30671007606975    4.14078667980806   -1.59738326936941
H         2.39611368352994    3.62192973998957    2.66648046943179
H        -1.68567099618617    4.42827475294085    0.63434713385350
H        -1.54806135201088    3.58512572782967   -3.53683493010671
H         0.54320915442111    1.90821971066443   -0.02585360125578
H         0.65147160421763    3.30712786502291    1.03197504279784
H        -4.13528960676795    4.51934187439629    0.54212508675308
H        -3.99972489469617    3.67398273271599   -3.63889744069407
H         4.59777158429258    2.98489362622060    3.68096690000019
H         3.69180288543250    4.16699702381585    4.63391298534037
H         5.07809927021663    4.68514272635314    3.67748645808448
H         3.40721657115029   -1.27925783162586    0.78328159893301
H         2.50425933916962    1.52127788238213    2.76440454440710
H         5.59128183184492   -0.12312458724595    0.45833188340844
H         4.93254504276615    0.65628597267392   -0.99306508105242
H         5.16734165893329   -1.10514688708131   -0.95258679728403
H         0.80373871776725    6.39011124270952   -1.96444435956636
H         2.07334261276599    5.84354364328157   -0.88291263693021
H         0.47560611834894    6.24403004797129   -0.25289655884562
H         0.68921231125487    0.05154246624004    1.92832224306970
H         1.25015534707418   -0.39206567715797    3.54717528128474
H         1.72310424683947   -1.36298938561842    2.15254716478440
H         2.10414515287060    5.86459906826017    1.67689507232668
H         3.59733784422374    6.41357146385416    2.44706504826509
H         2.23308529310443    5.90635987968078    3.44454496465007
H         1.22061384824441    4.01313458689127   -3.77041271965493
H         0.70152390690779    2.39694165101166   -3.31360317406663
H         2.25354091516969    3.00329378981097   -2.76125863071901
H         1.47690598115847   -0.70568188656109   -0.66739056152954
H         2.78671831213694   -1.41137646101521   -1.62404235551061
H         2.52683042689570    0.34932509121551   -1.63003137277509
H         4.83902940298437    0.60828309400553    2.92640824312957
H         4.18311912389665   -1.02778203454881    2.82240472632960
H         3.73479018697417    0.00835757911633    4.17690324580074
H         5.32362974895333    5.33813614092770    1.61871078292663
H         6.34817406118007    3.05848866081799    1.73045819444353
H         7.15267958475828    4.07976638866436    0.53272765330466
H         5.98735845206215    2.84535139727140    0.00563513496651
H         4.21684864949814    6.12240976003081   -0.40628271094505
H         4.52609975170641    4.56744232441121   -1.20626598550062
H         5.87125784284004    5.67009365307711   -0.83089789338428

