59
CSD_code = ZUJQOM | q = 0 | S = 0 | Stoichiometry = C29H22ClN2O4V | MND = 6
V         4.79193861627361   10.56758515826591   11.43234251379942
Cl       10.61070282182670    8.51941460844051    8.07203329027893
O         3.99380445583887   11.78109596590358   11.93630665190236
N         3.43254633233672    9.14295852429504   11.88139514457146
C         0.83455600991530    9.99535079107970   12.61026543042753
O         4.14509577307205   10.24636449524204    9.88731368953357
N         6.22515058101408    8.59394804635852   10.75336820739492
C        -0.26622440682882    9.18224411903536   12.85404784210170
H        -0.80990063376936    8.75338271302187   12.02310246239884
O         6.24118999253630   11.28690044727467   10.79849361757304
C        -0.67093331070763    8.91718643972457   14.15114171503740
H        -1.52915722431379    8.28501015111506   14.32850360035803
O         5.52100523178427   10.04881513505273   12.95468204757049
C         0.02741772839257    9.45450084070608   15.21953968428369
H        -0.28118990091938    9.23701210947608   16.23138886698746
C         1.11998777834926   10.27318091487763   14.98587125469729
H         1.66420668225313   10.69663712486038   15.81689484584198
C         1.52232529876942   10.54515032874336   13.68957014598156
H         2.37470912873485   11.18822898024272   13.49837432405503
C         1.35567961368868   10.19667749181024   11.21810155956158
H         1.87475943609871   11.15808978281824   11.14083039281918
H         0.54965764275095   10.14444584095418   10.48376297999884
C         2.39455407382925    9.09299549871677   10.88895793025682
H         1.89441716246707    8.11126997753367   10.86565309338770
C         3.12215548738269    9.40376845495119    9.56486473617067
H         3.51634369113169    8.46766336409232    9.12486524030074
H         2.43872835474053    9.87170240828885    8.83615126550018
C         3.29115569704310    8.44139446473855   12.95177704748964
H         2.44798236200605    7.74756429613126   13.00015126014777
C         4.16379501034239    8.48417856054426   14.07184918790619
C         3.91309249963683    7.73450620463353   15.26974399677963
C         2.75984774732495    6.95334614363096   15.47270835784200
H         1.99556982477816    6.90498182949900   14.71348988550646
C         2.56464245539243    6.25857298470251   16.63935768662153
H         1.66716606346843    5.67162339691085   16.76845266121276
C         3.51098845014376    6.30405725367557   17.66622735776245
H         3.34522177667076    5.74843087864040   18.57675978073842
C         4.63845145511122    7.06503869388765   17.50788112573998
H         5.37603557167567    7.12321734604974   18.29541251228813
C         4.85873897595707    7.79376907721609   16.32609784209121
C         6.01410995273067    8.60559899729287   16.18492610001570
H         6.72272671270450    8.63070297721635   17.00100042799991
C         6.22814958647062    9.34892015780881   15.07152132081047
H         7.09471868738105    9.98614391862711   14.96838477749398
C         5.30141145723482    9.32436605069249   13.98426653469424
C         6.20844868328323    7.28640913412882   10.74429632265852
H         5.37655403262336    6.81121578790613   11.25263888297319
C         7.20165292429482    6.51226355868770   10.12458960788110
H         7.13690745091203    5.43546406071400   10.14863368115208
C         8.24211747917327    7.14658626299893    9.49946984656460
H         9.02774607129513    6.58804552454014    9.01241723188527
C         8.29137571058478    8.55521809241983    9.49234647491716
C         9.30828531426387    9.32083292227273    8.88421592792572
C         9.27890166552274   10.69401388657002    8.92711678628064
H        10.06766934379001   11.25882280581011    8.45371261952288
C         8.24650289168060   11.36885114634092    9.57328969149908
H         8.23639032958931   12.44839242062708    9.59697034169597
C         7.20330186057443   10.68183139729930   10.19432918977794
C         7.23211553969008    9.24366005490853   10.14834299933338

