50
CSD_code = ZUJTUT | q = 0 | S = 0 | Stoichiometry = C19H27ClN2Ru | MND = 8
Ru        1.95824990915237    2.34466931259797    3.20464114228158
Cl        3.05418620509739    0.40991356879142    4.10003036473755
N         3.88815657602567    3.51743099782786    3.93341295527601
N         2.32266608454368    1.31888864467282    1.09034102040490
C         2.26907704845800    3.85557505477011    1.86283066210019
C         2.07766449214055    3.64036101535656    0.49641937136034
C         2.38141035880207    4.62233422352559   -0.43581662146459
C         2.94204491465958    5.81891445391156   -0.02278000195109
C         3.33177172340039    5.96205793766422    1.29806902867898
C         3.02377194135677    4.97434029825312    2.22260642324841
C         3.63372997850990    4.93517583426738    3.59669103593289
C         5.08789571404351    3.07203902574253    3.22583241919621
C         4.16115774248275    3.38250708839554    5.36332071671752
C         1.71591945534259    2.23544612227674    0.10040379452019
C         3.74863210510366    1.18297351361167    0.79668748902661
C         1.73280288581671   -0.01310104114106    0.96799736830852
C         0.77091642575166    3.70160151811444    4.37403978843110
C         1.08025163387240    2.54570946926216    5.12777650554060
C        -0.09285469616754    1.59582265401808    4.91877448245892
C         0.16463679366502    1.23563541708162    3.46067282620437
C        -0.13696389644781    2.40252734270552    2.72229184020856
C        -0.58959633249699    3.43509228269902    3.74515096606568
C        -1.27721230325347    2.56569701164428    4.80639532229496
H         2.20122201116269    4.44195042602876   -1.48694858766992
H         3.15087728228008    6.59886867990477   -0.73970204874083
H         3.89626803852604    6.83158138121952    1.60607970117847
H         4.57445693701869    5.50605831903969    3.62436282077301
H         2.96678287029479    5.36582648259595    4.34712089928000
H         5.00894543501360    3.32121622409115    2.16981141731417
H         5.19730404276805    1.99479441495010    3.34812150656504
H         5.98379372105108    3.56635482486589    3.62800974017125
H         3.36093441889735    3.82892081953505    5.94976833904162
H         5.10084905505274    3.88558143884762    5.62849299831720
H         4.24694626850173    2.32469243612771    5.61212117978988
H         2.09021760965996    2.00422066420709   -0.90868567021285
H         0.63392699666720    2.08550877692347    0.09021543456316
H         4.20202976578111    2.16669893992108    0.69692886521227
H         3.90261991442834    0.63736117409033   -0.14521144193329
H         4.22968882003953    0.63128132356206    1.60400654401212
H         0.64882544726155    0.03961064922093    1.04523026861676
H         2.12249741444910   -0.65024277253411    1.76192565371423
H         1.98529002404631   -0.46243266363650   -0.00200544072401
H         1.05981717389959    4.71241691899660    4.63303948001676
H         1.65229469929350    2.51355480132762    6.04698732526780
H        -0.17577403850428    0.76592039972581    5.61663809668514
H         0.04956430197522    0.21336003877363    3.12152622412509
H        -0.53949684914296    2.41972525892717    1.71793910357592
H        -1.13062139858726    4.29771167421980    3.36372454380238
H        -2.18864194606294    2.08811150989172    4.44545904247284
H        -1.48163277562800    3.10133611312933    5.73395510521607

