82
CSD_code = ZUJWUY | q = 0 | S = 0 | Stoichiometry = C39H33IrN2O5P2 | MND = 4
Ir        0.79718410950377   -4.74688861472746   -7.45647608303917
P         0.69243728274803   -2.50390857335356   -8.08648818058273
P         0.94022881727981   -7.05554519546903   -7.13878305922239
O         2.36736110531604   -5.35526967178431   -9.62707942923539
O         1.16197880549220   -5.66900352959817  -11.38260807346432
O        -1.53530199395618   -5.37955896890554  -10.87831853543772
O        -1.74307902949351   -4.75294908373119   -8.70701362371035
O         1.62442471064540   -4.10831663203242   -4.64549906735211
N         0.26070870936539   -5.16665580159014   -9.41448838688478
N         1.28096778229105   -5.41497035310224  -10.20831237478849
C        -1.03672926800138   -5.13736366715884   -9.81476106408510
C        -3.14670668015146   -4.64499386710005   -8.83670811897815
H        -3.44810481058056   -3.65818880019499   -8.48200958092370
H        -3.62276622653789   -5.41525085053120   -8.22663410035273
H        -3.42903993166798   -4.77578960178823   -9.88422049894072
C         1.29659187040282   -4.36211076233077   -5.73149013895607
C        -0.74124134814239   -1.51201757281363   -7.56299838109069
C        -1.49775135713374   -1.98054540387010   -6.49493876842651
H        -1.21215763556850   -2.91460954568237   -6.02812270987469
C        -2.59756820657051   -1.26682581729228   -6.05340672217319
H        -3.18421537368684   -1.63558829866194   -5.22494969875625
C        -2.94851770449672   -0.08080216873385   -6.67769584531755
H        -3.80838872089127    0.47673652443160   -6.33682620252995
C        -2.20019563975287    0.38902067425775   -7.74560283703497
H        -2.47674221933096    1.31170366023731   -8.23485835020441
C        -1.10041599201213   -0.32210630750643   -8.19085877637425
H        -0.52734437201941    0.03833708904047   -9.03481262593037
C         2.13505458683100   -1.52183400795455   -7.55012534079830
C         3.34207811936883   -2.21060119411515   -7.45093567790764
H         3.35906684799891   -3.27331821963895   -7.66024948109790
C         4.49568251398677   -1.54533438612548   -7.08194059300709
H         5.42921062829560   -2.08332913020207   -7.01038064611113
C         4.45038730715886   -0.19006873775891   -6.79572020071188
H         5.34930404771879    0.33133616890520   -6.50179182186093
C         3.24935941212870    0.49419233106177   -6.87653135393545
H         3.21152504888531    1.54828272525669   -6.64304481437252
C         2.09241711731540   -0.16582714497767   -7.25390086780680
H         1.15854228400032    0.37469429114019   -7.30397109949571
C         0.71145996500803   -2.26728219254547   -9.89170024397313
C         1.91968549336745   -2.28379582970466  -10.58217463084596
H         2.85089275137465   -2.30366047628321  -10.03354224252652
C         1.92700605676605   -2.29353500998689  -11.96516072954144
H         2.86779881164157   -2.31603716678704  -12.49448896582669
C         0.73398118413006   -2.30068115670103  -12.66818922013519
H         0.74253094087760   -2.33024986736592  -13.74700347204127
C        -0.47173179029756   -2.28613326727326  -11.98631650423737
H        -1.40371456862206   -2.30565513731621  -12.53088778590951
C        -0.48561349736229   -2.27519111007320  -10.60462769576618
H        -1.42777185932710   -2.27795410894232  -10.07265784132874
C         0.73200026588236   -8.02168181449752   -8.66785298423348
C        -0.56279663239656   -8.15446676966116   -9.16808490907161
H        -1.39767456282183   -7.78827963081823   -8.58292079011754
C        -0.77662549154774   -8.73752942560932  -10.40100477298712
H        -1.78023037024692   -8.82223196096945  -10.78968190606906
C         0.30094270101300   -9.18683211202213  -11.14821869542501
H         0.13609473397036   -9.62376492630190  -12.12126439619683
C         1.58778385647223   -9.06174652804572  -10.65404978660945
H         2.42790772560111   -9.40421481325592  -11.23955747075078
C         1.80856427622341   -8.47580636204138   -9.41956447581589
H         2.81549563978192   -8.35697645619338   -9.04609712427120
C         2.54794783103134   -7.61942208180767   -6.49120665010275
C         3.67987753228077   -7.00382368699782   -7.02340585177137
H         3.55928357206204   -6.24323823977695   -7.78246720130960
C         4.93889948592505   -7.37130414291733   -6.58780940961355
H         5.81371885265961   -6.89769139542308   -7.00826179577081
C         5.07808445013045   -8.34186321257383   -5.60813475828263
H         6.06132033488270   -8.62624630981761   -5.26323605065708
C         3.95473187771403   -8.94147371308516   -5.06474484901530
H         4.06137052889045   -9.69119764596177   -4.29423357490042
C         2.69066760110379   -8.58386889628467   -5.50173646296728
H         1.81974439029599   -9.05141802605781   -5.06580147315494
C        -0.27290056509104   -7.86489920005234   -6.04539470139669
C        -0.97470469774563   -7.08746619034384   -5.13217580945909
H        -0.78767628347404   -6.02138474368921   -5.10410372188372
C        -1.89743857941038   -7.67283614770149   -4.28318980056995
H        -2.44066051542159   -7.06508609260956   -3.57470380540671
C        -2.12631948653322   -9.03761312723734   -4.34470228170435
H        -2.84787920571746   -9.49568723579526   -3.68445318430996
C        -1.43284882045062   -9.81718472644535   -5.25744553633787
H        -1.61338484485253  -10.88112984987013   -5.30730044998982
C        -0.50938562480083   -9.23589983659908   -6.10670396752703
H         0.02742194029592   -9.84199093203790   -6.82438888940138

