78
CSD_code = ZUJWIM | q = 0 | S = 0 | Stoichiometry = C37H30IrN3O5P2 | MND = 4
Ir        8.60152842630871   -4.76459538177433   -9.97389749727269
P         8.66449221444209   -2.51948716418894   -9.32306302183380
P         8.36638275383708   -7.05912725029334  -10.35289852268200
O         7.78760661999895   -4.05969316305590  -12.77038888412298
O         6.95989910557919   -5.21746721647965   -7.69060147547326
O         8.19729746800781   -5.65767338979988   -5.98168790581488
O        11.06464560016697   -5.14137576269522   -8.67015379240886
O        10.74944711955158   -5.61672437336337   -6.59077861448909
N         9.05716418026969   -5.23689651777436   -7.99795830717943
N         8.04357934726371   -5.38764059192594   -7.14391161374852
N        10.35457070115705   -5.34728694477360   -7.69499462725426
C         8.12381214953535   -4.33661183989144  -11.69527321428099
C         9.99222688240895   -1.44694532249852   -9.95174413725018
C        10.68634656609209   -1.85048900539106  -11.08603321960921
H        10.42988362715761   -2.79599182723645  -11.54597101785098
C        11.69625333765119   -1.05752766243182  -11.60084206330452
H        12.23610980905756   -1.37519902592351  -12.48026487364475
C        12.01906155425266    0.13968020833835  -10.98343433213835
H        12.80965418157539    0.75799744162261  -11.38201403865137
C        11.33469691331582    0.54245999546989   -9.84726196198030
H        11.59165319531901    1.47291050922514   -9.36222044917206
C        10.32450772379349   -0.24657170997734   -9.32879418134909
H         9.79914894319919    0.06090641998659   -8.43420589708149
C         8.81513521969784   -2.29964137551398   -7.52110569930730
C        10.08303607448863   -2.40679515726167   -6.94984713070708
H        10.95141196007416   -2.49480502525647   -7.59087370422449
C        10.22743057053730   -2.41264371138832   -5.57572385405130
H        11.21033550188736   -2.51045688233540   -5.14067477682741
C         9.10953614351598   -2.32003157255348   -4.76155145968643
H         9.22179245812536   -2.34298438257282   -3.68851828124993
C         7.84883433349076   -2.21242749178527   -5.32416357708348
H         6.97686211613935   -2.14857748137139   -4.69066018902037
C         7.69659086380331   -2.20816990204898   -6.69973656610882
H         6.71069805279786   -2.14544460157555   -7.13807340313364
C         7.13110402640299   -1.61819155942452   -9.72347909775073
C         5.94547763079672   -2.34417034323039   -9.62820922715491
H         5.98673514937654   -3.38577446525438   -9.33834821459053
C         4.73466060434737   -1.73716061234273   -9.90154548302155
H         3.81799454581286   -2.30231300926942   -9.82162823144535
C         4.69933295816179   -0.40587324288429  -10.28562559389862
H         3.75458431147110    0.06895232234657  -10.50535517842012
C         5.87702933735267    0.31370709663883  -10.39673502481953
H         5.85085539243182    1.34861512230347  -10.70520446537444
C         7.09261048309550   -0.28691011326104  -10.11688416249286
H         8.00752378373604    0.27905654418628  -10.21531571835353
C         9.50731990638604   -7.89631954712530  -11.49709150681826
C        10.22176939210044   -7.12956754247597  -12.40944811523785
H        10.09411420692897   -6.05495659058115  -12.40214844470713
C        11.08915313183294   -7.73795101553130  -13.29925217206144
H        11.64419785938663   -7.13914426104054  -14.00574154876424
C        11.24956550487346   -9.11358800503564  -13.27887597541067
H        11.92874367687565   -9.58930290666774  -13.97068007296754
C        10.54485634510304   -9.88191280054195  -12.36521894972849
H        10.67466305065845  -10.95415939429845  -12.34580504319037
C         9.67626829704139   -9.27854698704416  -11.47472580261519
H         9.13257892666247   -9.87610670667493  -10.75494684445553
C         6.71106547997276   -7.52996718386233  -10.95333706353960
C         5.62941106175152   -6.85909516279047  -10.38517779317653
H         5.81020248038269   -6.10520312274428   -9.63134050689092
C         4.33985296835485   -7.16056224686902  -10.77983152550494
H         3.50456687692038   -6.64364319531226  -10.33115969761522
C         4.12025037037496   -8.12086278941906  -11.75480877215723
H         3.11326036018901   -8.35412401319047  -12.06772668361272
C         5.19372278561005   -8.77555930152348  -12.33439110562297
H         5.02441903882835   -9.51714320516639  -13.10138739249282
C         6.48771784322996   -8.48383018033252  -11.93799570740582
H         7.31968666580736   -8.99369681044718  -12.40160966874013
C         8.56877736492023   -8.05468439019044   -8.84032883110515
C         9.86958449405745   -8.27817594287402   -8.38850990274558
H        10.70657194614829   -7.95926552640810   -8.99754543139774
C        10.08637582149707   -8.88901507137056   -7.16864012479298
H        11.09537613095472   -9.04528712856817   -6.81859795613046
C         9.00848899827739   -9.27495758209364   -6.38701253729027
H         9.17815203873888   -9.73539395975486   -5.42590142107435
C         7.71579473178094   -9.05779871747635   -6.83266550354579
H         6.87588339931180   -9.35181617324577   -6.22124573552566
C         7.49128167121503   -8.44424759854205   -8.05316964898690
H         6.48158723658523   -8.25842552229628   -8.39062982738568

