84
CSD_code = ZUJZAH | q = 0 | S = 0 | Stoichiometry = C29H42N8O4Pt | MND = 4
Pt        4.76847489853884   12.33501868508527    3.81892795850289
N         2.45400990875551   15.74863429934436    4.09319425098847
C         2.71595860854952   14.46641386724109    4.02512750852506
H         1.95489944669176   13.71076831333142    3.98717868822841
N         4.03159521724051   14.17643395283807    4.02978232645024
C         4.63855001908644   15.36049179130500    4.10979629277625
N         5.92622165053877   15.63513665125199    4.16401799631637
C         6.27511941275262   16.90102365048683    4.22512910391377
C         7.75280333778367   17.21836734494618    4.27248555092629
C         8.04918818916256   18.18388776135454    5.42690308028331
H         9.12279790656053   18.33389788809823    5.50760655534860
H         7.69022760646313   17.77116818114299    6.36649980707333
H         7.58558282013737   19.15463889099786    5.27409714145258
C         8.14330246816374   17.86523994138385    2.93532237679750
H         9.20796464423830   18.08625592373984    2.93241717259010
H         7.60094318715772   18.79385880832654    2.77324278359861
H         7.92361509758800   17.18989354017592    2.11037342184109
C         8.56031495693897   15.93634126091662    4.47771207933329
H         8.27158945656031   15.45298298593486    5.40616255335352
H         9.62209825616422   16.16605865022111    4.51560440923475
H         8.38229300236756   15.23666116892865    3.66895181787277
C         5.30879804257094   17.93374879305862    4.22823256942121
H         5.63499139715781   18.95700897601022    4.26535336610165
C         3.96604976086753   17.65331398975781    4.20246957382085
C         2.84736536386323   18.66552403586123    4.24653505799886
C         3.38531560803646   20.09662131483673    4.30582987046070
H         2.54843332736977   20.78925224737204    4.33789634605045
H         3.98043478233608   20.33154473802946    3.42597714812580
H         3.98506206456158   20.25597126891928    5.19889619509525
C         1.97949659160727   18.50617671937398    2.99046930706306
H         1.17213899478270   19.23295415816984    3.01577872385253
H         1.54625596537902   17.51155281083011    2.94674894636419
H         2.57080132126250   18.67857104623601    2.09383595910640
C         2.00330297734185   18.39042033137404    5.49950383810807
H         1.20342970395416   19.12278458548342    5.56588245778677
H         2.61459637975470   18.46587786266557    6.39666940634650
H         1.56105972817181   17.39963457241532    5.45379175060257
N         3.65120840247181   16.33535497253878    4.14289713966806
N         8.48755036257896   12.94146836298800    2.08626624997034
C         7.63283665254243   12.41798116001847    2.93205054812501
H         7.90451619670701   11.63762830020285    3.61556936370359
N         6.39507100408198   12.94028981735593    2.85311155314205
C         6.47276338239993   13.84387779237072    1.87575128700286
N         5.52984853777839   14.62595191412621    1.39255642707817
C         5.86246708136496   15.44927259134455    0.42300305921966
C         4.78299930993359   16.35055298462294   -0.13244383958352
C         3.41565774210711   15.92181726207322    0.40054579689652
H         2.63817870120558   16.56385782398971   -0.00561768984888
H         3.38946170419415   15.98185547345610    1.48250132657873
H         3.20613849689327   14.89421362379466    0.11947837547264
C         4.76633297138370   16.27520853345277   -1.66429489192772
H         3.92611431639503   16.84968159401863   -2.04604342913174
H         4.65177476841525   15.24458627583986   -1.99062518680837
H         5.67499949704067   16.67994337485309   -2.10170905406454
C         5.08674685033598   17.78764544515953    0.31724359545537
H         4.31640519482978   18.45881811510309   -0.05490990699876
H         6.04768386260436   18.12503643199085   -0.06459004443298
H         5.10820618697726   17.84711776853769    1.40396857083450
C         7.18662945929885   15.50959655292258   -0.07091710020154
H         7.42280751422028   16.20770555254896   -0.85304980479836
C         8.16911929818328   14.68689963542235    0.41855658364511
C         9.60292952603216   14.64033026885596   -0.05022373033544
C         9.88725191866380   13.22840713136657   -0.58248100826934
H        10.91073125954204   13.17603191139351   -0.94362107977295
H         9.21837673353787   12.98890209241853   -1.40663842954250
H         9.75979256091741   12.48931715724071    0.20284649790740
C        10.52492051084983   14.94353507441793    1.13918105176258
H        10.39361202473230   14.20495454142176    1.92414742000280
H        10.31706068446245   15.93313842251678    1.54064704831834
H        11.55992843885102   14.91591336342760    0.80957034951715
C         9.86565078265453   15.65942571606355   -1.16078908666578
H        10.90592959567627   15.58979825067416   -1.46763744479856
H         9.68574715904423   16.67530103027329   -0.81552698266147
H         9.24651398303511   15.46078233445580   -2.03240702586437
N         7.77887038853543   13.84540246661976    1.40878883846750
O         5.43108633465592   10.47308523347674    3.53061777985598
O         3.10259906214461   11.66388011969792    4.69524034224638
O         2.20532321666962   10.11376701693505    5.97601849548368
C         3.17829701793534   10.63154175614104    5.47151849312680
O         5.55393969557383    8.42713340150197    4.33556096621859
C         5.23247182126034    9.58994863025388    4.45391974655015
C         4.59759089501137   10.10883615214185    5.75838997871989
H         5.20648535513497   10.94109613395409    6.13790901761803
H         4.55149144067940    9.30237942857335    6.48946644140851

