83
CSD_code = ZUKBEM | q = 0 | S = 0 | Stoichiometry = C27H45ClN6Si3Zr | MND = 7
Zr       16.96649797572548    7.25549000658783    2.45614370947665
Cl       15.59492955225994    5.87855339129786    3.82770890319294
Si       17.69220551078938    3.96421984985477    1.72362637787668
N        18.19464791116282    5.54122242592127    2.18565507355828
N        19.24849849493981    7.51390528033033    2.37509885523308
C        19.36785190851887    6.16454970176634    2.19628574729472
C        20.64937407418706    5.57714340360975    2.06983587476811
C        21.77559951288747    6.36086717754858    2.13042352880303
C        23.14740476699619    5.77132442083216    2.02004410844543
C        21.62019252292580    7.74585147409559    2.31621824992694
C        20.34928603992802    8.25949399300608    2.43208666617328
C        18.87000580717390    3.05812509623688    0.50553164323227
C        16.04236949137362    4.25498438037258    0.79213106543477
C        17.43382339865274    2.86403377540205    3.26969821716311
H        20.71468406519498    4.50895394442300    1.94237621662532
H        23.73576088080907    6.31342547950682    1.28100925494353
H        23.09898345915369    4.72291180090523    1.73681077940354
H        23.66277419351251    5.84991903380074    2.97744406402302
H        22.48373000575668    8.38954175642111    2.36954168261441
H        20.18706969199860    9.32373112019106    2.57772815580028
H        19.68348243761751    2.55972498387178    1.02233639016338
H        19.30287787980962    3.74478894953438   -0.21581576818542
H        18.32913617010593    2.29811097902638   -0.04788719885212
H        16.21298544213193    4.62242638227403   -0.21836357623452
H        15.43040506468918    4.98801925823602    1.32139019466788
H        15.46670645940966    3.33833760629773    0.71208546143313
H        18.35282059998725    2.74094431100613    3.83614822093649
H        17.08253122752486    1.87544979940839    2.99331535295674
H        16.69365373573476    3.31211437561395    3.92679442307101
N        17.23716858886980    8.48336173373473    4.17051571640882
Si       17.69956338841258    7.98029077184473    5.74720496622967
C        18.91814972504210    9.15785404948419    6.65288017824840
H        18.40153261852646    9.97098999102711    7.15201367721391
H        19.63887656965688    9.59115660851768    5.96584134156797
H        19.47221922526266    8.61671297073143    7.41222050352259
C        18.63091830563939    6.33050761998590    5.45558254971233
H        19.64105369504978    6.50110322811048    5.08713306733163
H        18.10098424484698    5.71847570888676    4.72312000109597
H        18.71185693987548    5.75486561633798    6.37216331303828
C        16.15432614055410    7.72130243351313    6.84841282330249
H        15.58730031528251    8.63992553518656    6.97155006184226
H        16.43159654808583    7.37055506767319    7.83694262735750
H        15.49749038381464    6.98054987831248    6.40097643242322
C        17.22633612537701    9.65667372890595    3.54745512928942
N        17.04726283704693    9.53753305521812    2.19811531219958
N        15.25259253699116    7.52568659381678    1.22775308126186
Si       13.67600049416712    7.98853335196941    1.73075178835800
C        12.77090336502448    9.20734872136152    0.55298149521218
H        12.27276734118183    8.69109368874606   -0.26100285686581
H        13.45811783216757    9.92861290338896    0.12083178745617
H        12.01082598050016    9.76079163581186    1.09372162564857
C        13.96689324934365    8.92003931191824    3.38058002048408
H        14.33531892564726    9.93020201446676    3.21015689687576
H        14.69905377352620    8.39036495867967    3.99310887500286
H        13.05001622307092    9.00085380573678    3.95577026407771
C        12.57500562823421    6.44307803257501    1.98937666904859
H        12.45232639409924    5.87587111542348    1.07079498623806
H        11.58630460021313    6.72009117275325    2.33981312185519
H        13.02241749101762    5.78649716227109    2.73038455917137
C        15.87584355248625    7.51514718881771    0.05450613566789
N        17.22517951899651    7.33617438841958    0.17379351265933
C        17.97062401208166    7.27861582855268   -0.92705847827899
C        17.45688981964248    7.39425526567304   -2.19795985937565
C        16.07198502434800    7.58062806288279   -2.35327247174107
C        15.28837378449417    7.64162911876337   -1.22696824823313
H        14.22020453867895    7.76929906380352   -1.29224115025741
C        15.48232580284818    7.69110290361326   -3.72496113047915
H        16.02716124864300    8.42591202973233   -4.31514136061583
H        14.43576324895476    7.97919685154298   -3.67685884028993
H        15.55583824102328    6.73284308563779   -4.23837013405900
H        18.10051032980415    7.34061138852930   -3.06152921419447
H        19.03484754743618    7.13271843581192   -0.76492980037136
C        16.98976422385891   10.63844071750665    1.45274470938588
C        17.10555710993443   11.90925831816073    1.96660214414399
C        17.29184995967396   12.06443677261192    3.35156343731373
C        17.35268735492049   10.93810018012313    4.13509559261585
H        17.48022100404600   11.00321290554844    5.20328858766027
C        17.40296365828245   13.43612378972650    3.94106963453692
H        18.14473200028300   14.02280085641943    3.40144739906766
H        17.68271598010871   13.38767315267191    4.99009570723081
H        16.44731049103934   13.95353876344867    3.85930363415180
H        17.05203605721383   12.77291376728695    1.32309215874110
H        16.84374772370661   10.47638054095933    0.38853634616460

