91
CSD_code = ZUKHIY | q = 0 | S = 0 | Stoichiometry = C44H43FFeP2 | MND = 8
Fe        4.83603437937500    1.58016031339259    4.71577582352699
P         5.96696227902887    0.76378270818544    3.11197171361484
P         5.64718227947116    3.44686496572358    4.09689182974172
C         4.24930526295552    1.98793728308446    6.72649053010644
C         3.21030794782941    1.30077389495077    6.05089292982831
C         3.73196553124753    0.05807581947977    5.58662104219624
C         5.08397844619071   -0.04736959450441    6.04126315449019
C         5.41301191671605    1.15212072700606    6.72475321806198
C         4.09192381541208    3.24643443931882    7.51971196430977
H         5.04988540649111    3.56909104081353    7.91805054820274
H         3.41546443124899    3.07136626585715    8.35838139365397
H         3.67896456686936    4.05271364737678    6.91573640497971
C         1.77904796795192    1.71563500448616    5.95676463239643
H         1.64576098993020    2.73782484446949    6.30123286010875
H         1.16345071197268    1.05877289338215    6.57311664726810
H         1.43052232276773    1.63951369088576    4.92886877464880
C         2.92114240380529   -1.00211669015908    4.91710761816333
H         3.55619793633378   -1.70841836972457    4.38854691783307
H         2.24503649724683   -0.54953615217936    4.19548446811654
H         2.32736403910746   -1.55133295321768    5.64985108575718
C         5.92619219939029   -1.27807987301600    5.95314843033352
H         6.98288018616177   -1.03741352206653    5.86043384574673
H         5.63626909474841   -1.88028155820857    5.09530494123605
H         5.78994618281769   -1.88169975509655    6.85284701813780
C         6.63320751250130    1.40623014683260    7.55511700573220
H         7.12058007758800    2.34145420077717    7.27731028760161
H         7.35069820713126    0.59619889444473    7.45199429944458
H         6.35423776028968    1.47449044965210    8.60825841986807
C         6.06523042838387    2.00078083742157    1.71571642709539
H         7.03152408920638    1.89205270144990    1.21369577534566
H         5.28226459496515    1.74930172463879    0.99742054607966
C         5.86716871255792    3.42406051675047    2.24609642422037
H         4.93925454371593    3.84703166094248    1.85039239285500
H         6.68582357087580    4.09066868601138    1.95955351928264
C         5.39074340874677   -0.75301599452974    2.28620762479993
C         4.16379847375300   -0.71658691975469    1.62775298468411
H         3.62860979182305    0.21916176536647    1.57498656896262
C         3.62080648358337   -1.86746543364773    1.08977601319298
H         2.67078928405763   -1.82484127540992    0.57709518392282
C         4.28657470482751   -3.07615079152928    1.21837145763173
H         3.86275125975556   -3.97728370839364    0.80006047642643
C         5.49111600192581   -3.12783843344494    1.89972270002965
H         6.00548381025429   -4.07104520350340    2.01785829038122
C         6.03844727275788   -1.97657525982544    2.43791268042175
H         6.97582839550532   -2.02996256969565    2.97407959383921
C         7.75470182304647    0.41870447985430    3.30878659492360
C         8.34818972138884    0.75687394917441    4.51585775448568
H         7.72548367031217    1.18512325606916    5.28574584843987
C         9.70488274278754    0.56924082117306    4.71127992488498
H        10.15744826206186    0.83658823301742    5.65541755387251
C        10.47996744648279    0.04866128960162    3.68933625495554
H        11.54001954557332   -0.10049866192932    3.83456192480799
C         9.89731343600453   -0.27661872250893    2.47331867051408
H        10.50556208252087   -0.67569334212369    1.67407151001049
C         8.54116261381219   -0.09163375026230    2.27941420237391
H         8.08662734703878   -0.34825228223174    1.33115745615185
C         7.28171017989852    3.99150503585305    4.70311191301973
C         8.47475930922958    3.71275131074344    4.04554935132923
H         8.46238942177481    3.23674413582750    3.07559104124175
C         9.68595533885332    4.04112174977622    4.62783225535110
H        10.60677552700391    3.82593605313086    4.10478694171890
C         9.72175399325721    4.63643776633641    5.87748748656472
H        10.66916020792135    4.88986210725110    6.33008457948264
C         8.53828755965139    4.90612854205635    6.54724738450215
H         8.56261261659740    5.36885324965557    7.52370115857664
C         7.32845607322024    4.57853868075800    5.96619601639620
H         6.39762926782178    4.79260340933109    6.47431131882885
C         4.70884038462120    5.00240972128565    4.25967866908257
C         5.29399513121609    6.25264131499301    4.08801187031607
H         6.35259784241242    6.32821395651529    3.87900698779315
C         4.52128520237414    7.39525117371222    4.18970202838057
H         4.97687325120388    8.36598467523578    4.05588789972395
C         3.16550804868683    7.29899395062483    4.46056905969354
H         2.56722604471419    8.19492995135009    4.53975329407661
C         2.57820334378050    6.05525771176350    4.62585148655489
H         1.52007600443895    5.98077816131700    4.83124355575130
C         3.34848182959647    4.91080538744647    4.52713461017129
H         2.91628213499202    3.92646050109765    4.63040691828392
C         3.59961882557392    1.97994911498497    3.35950298121701
C         2.66536398289020    2.21804023858411    2.61960984731766
C         1.59416526251004    2.50660204649696    1.74725175100957
C         1.72244444706604    2.31783040669360    0.36634832878850
H         2.65542822611993    1.94379505175973   -0.03205678074139
C         0.67460307263714    2.60496154438960   -0.48426713935072
H         0.78804564368770    2.45313594547138   -1.54800424654480
C        -0.52621784315694    3.08776685659558    0.01185741151939
H        -1.35675211216565    3.31818286664300   -0.63587999511964
C        -0.64033885976188    3.27404435221560    1.37822568378366
C         0.38607299188152    2.99616736872192    2.25300756508220
H         0.25649207202154    3.15960541831996    3.31196523915714
F        -1.80927829285860    3.75062990842635    1.87531936734793

