39
CSD_code = ZUKSED | q = 0 | S = 0 | Stoichiometry = C15H16CrO7 | MND = 6
Cr        1.86471541048317    0.81182410382445    3.03265200624546
O         0.72520593072837   -0.83505955495083    5.29860095526347
O         3.40962916993914    2.26224515052292    5.17870338295167
O        -0.11056499412233    3.08164590475231    2.93253759407497
O         0.10693043699153   -0.99068207324421    1.37827825994423
O         4.31797912322163   -0.80153196905183    2.37800605917269
O         3.43632301033017    2.84540103751666    1.85055745003409
O         3.56691260251990    4.96109135974389    0.91154797156272
C         1.16401311353688   -0.20455321976176    4.44475616831297
C         2.84944132509948    1.75221990867150    4.31728024993733
C         0.57213012672661    2.16640255394426    3.05212225399524
C         0.80092153001220   -0.25685463818398    1.92539295204878
C         3.35085415166143   -0.27154853709423    2.70431536241454
C         2.58775535893306    1.90736626475121    1.55305234071776
C         2.35369416482028    1.88097153354366    0.06795448136561
C         3.09268838517885    3.10672875716515   -0.48218914481790
C         3.90963678242669    3.62774304930845    0.71077921552481
C         5.43474506735723    3.43174412593805    0.59917514878920
C         6.10315076119722    4.04209692733976    1.83431635193252
C         5.69208412735581    5.50591747435737    1.99515779104321
C         4.16614537742524    5.56460997547291    2.05068487204200
C         5.82042312134523    1.96389072520101    0.44323710002821
C         6.30159602500402    6.12472361861199    3.24727189935024
H         1.28453481956336    1.89455340499866   -0.15046165516720
H         2.75366031739471    0.94369025045139   -0.32979898168183
H         2.39753322224937    3.89441645412265   -0.77100909009633
H         3.73026313651929    2.87451326052194   -1.33105154235328
H         5.75152333810825    3.99147716970178   -0.28877003599433
H         5.79685271081210    3.47975292332087    2.71969803888762
H         7.18769130127696    3.96332236413735    1.73873266642098
H         6.02591201767469    6.06483198664543    1.11341723460130
H         3.80459720655345    6.59413329473513    2.03933692760041
H         3.80677322446559    5.06799647154337    2.96105096451402
H         5.48180895659063    1.38542218880293    1.30020015271704
H         5.39679470884338    1.53075279502595   -0.45942144505045
H         6.90259511508533    1.87841878841215    0.38264611530585
H         7.38688244815865    6.08336268820869    3.19820833269902
H         5.99936695315152    7.16436608343855    3.34618375711535
H         5.97590041539864    5.58519739748608    4.13364783852088

