57
CSD_code = ZULFOB | q = 0 | S = 0 | Stoichiometry = C10H26LaN5O15 | MND = 10
La        2.40087331838012    1.36919612591064    3.27553070701469
O         3.03479097006074    1.81167287125795    0.44210563440545
O         4.88736094713535    1.24136413201217    2.53484844386082
N         2.79088221061344    3.21307919976701    5.04266935136811
O         1.63277061548069    2.85005372670472    4.79304520669737
O         3.69982432609662    2.40108552349650    4.93404834764557
O         2.99860442199409    4.34746512282060    5.39847548893724
N         1.20535117025239   -0.43872500879379    4.72235366479983
O         0.50849599643131    0.27318618280157    3.99114829338648
O         2.25166455523377    0.01546318383044    5.17037034272950
O         0.85385411347998   -1.56676907186365    4.97942339684314
N         0.49211029874228    1.49324489565050    1.32333561446433
O         0.75637285607978    2.45494776457628    2.05495718997823
O         1.09399152507210    0.43021290702342    1.49681022189905
O        -0.33270209563130    1.59781681276279    0.45676640837474
O         2.97626040533265   -0.93225404436977    2.77005256678064
O         4.04350954050054   -0.76690114623871    0.82764624641571
C         3.30252268398952   -1.32850004841792    1.63862789711307
C         2.74514281129333   -2.71494721869333    1.13758855145063
N         1.76257188301998   -3.40332678128196    2.00409054122849
C         2.33799959046846   -3.64783153654503    3.33912331559603
C         0.53386202841480   -2.59336144866285    2.11329637387472
C         1.41779754056977   -4.70146578282989    1.39960235028874
O         3.13616346882340    3.50080710776078    2.66431240457762
O         4.76254429235441    3.89702246017438    1.20757049660774
C         3.85082666084217    4.23616588394274    1.96277633881180
C         3.51971344751908    5.77033757607767    2.06338769026236
N         2.06853495469359    6.06756913310345    1.96489460757656
C         1.49725049670298    5.38433727096469    0.78962801028067
C         1.33031970723689    5.63817439215097    3.17059369840877
C         1.91328402107536    7.52399921891119    1.81456757002164
H         3.78706305912570    2.42791202524048    0.39891566971451
H         3.39599352903692    0.93214337324773    0.23700607912094
H         5.16663056642671    2.07730330999233    2.11854951896887
H         4.92719617487015    0.55408929245082    1.83892062232204
H         3.61275912523029   -3.36064395802719    0.98376606045973
H         2.28920341801846   -2.51177074235043    0.16703821021743
H         3.24744540411339   -4.23903421535614    3.24814063235357
H         1.61807161214889   -4.17069242154132    3.96417263356867
H         2.57133963626375   -2.69684436146627    3.81572836943177
H        -0.01138599042025   -2.61649570326233    1.17184038789895
H         0.77973625202380   -1.55545589986309    2.33048678629206
H        -0.09245680614781   -2.97078281515319    2.91789771619847
H         2.29658206308773   -5.34336689280065    1.35303588961313
H         1.03512402996710   -4.55902094753860    0.39008190971057
H         0.65363724655539   -5.19394594955671    1.99918415941937
H         4.05432221763089    6.28199303527584    1.26133572048888
H         3.89328738938433    6.11165739461878    3.03067867220614
H         2.07649796659584    5.61930815210933   -0.10169920999418
H         0.46454534329826    5.69582031427203    0.64630288600920
H         1.50566633415599    4.30560266731112    0.95152390240654
H         1.25099681838641    4.55087683855606    3.20198234542710
H         0.32590573358787    6.05577701158074    3.14896469713829
H         1.84662638327414    5.95797707177176    4.07410885877600
H         2.42470713137651    7.86991957358685    0.91716028007943
H         2.33624768902785    8.03117842075461    2.68027195604171
H         0.85820891074197    7.78287602219077    1.73695827442209

