43
CSD_code = ZULGOC | q = 0 | S = 0 | Stoichiometry = C8H24N10Ni | MND = 6
Ni       -0.00000117846014    0.00008247291543   -0.00008443927036
N        -0.89113274546750    0.77303244165910    1.40161894549022
N        -1.79674568483524    0.38014854184977    2.02395597541546
N        -2.67782523094900    0.10089963386994    2.69412615221958
N         1.93655287367073   -0.33554267842628    1.48974657453237
N         1.07717023305813    1.84291773945119   -0.22680253610139
C         2.41373977037930    1.03905716826219    1.65711398062579
C         2.42910981138094    1.80121324767337    0.33024826861776
C         3.00274383324441   -1.18070336900474    0.96037136413986
C         1.53120320733373   -0.87221545974194    2.78548286972422
H         0.50662667509139    2.49700121210569    0.30674400883224
H         1.10635340492081    2.15637970071653   -1.19362084493828
H         3.42156340540063    1.05780594168624    2.10208069630006
H         1.72474037824865    1.55281067230104    2.33222031817331
H         2.82454814855696    2.81134911904261    0.50828653166123
H         3.08565534956779    1.30586789375866   -0.38813095377619
H         2.61950146480698   -2.18582636661773    0.79421527262154
H         3.36688599910416   -0.79783247452449    0.01134666214929
H         3.84961373319518   -1.23668546965808    1.66101987298095
H         2.36462378649507   -0.86238491862776    3.50376663057199
H         0.71005005551181   -0.28644404027813    3.19291825193233
H         1.19721118820524   -1.90127980449456    2.66234885956428
N         0.89112002228319   -0.77278923767690   -1.40183633033800
N         1.79711352964209   -0.37996049839981   -2.02366476740654
N         2.67790712109843   -0.10032508317914   -2.69400923439135
N        -1.93665496210133    0.33550685362462   -1.48979616124641
C        -2.41374186331846   -1.03914106004027   -1.65704363732183
C        -2.42894773786909   -1.80125360690577   -0.33014880934449
N        -1.07696100406590   -1.84285992937864    0.22678626049654
H        -0.50642734831493   -2.49693019373337   -0.30678672427620
H        -1.10603959534076   -2.15628019902085    1.19361987736518
H        -2.82433266562761   -2.81142100556957   -0.50813121577182
H        -3.08546383959890   -1.30593061708579    0.38827169651179
H        -3.42160643049632   -1.05799569102550   -2.10191093322938
H        -1.72476646879648   -1.55287568649542   -2.33218791698306
C        -3.00288489177234    1.18061712533936   -0.96042130677513
H        -2.61971441724867    2.18578158856373   -0.79435774036847
H        -3.36693796987550    0.79778331821022   -0.01134845353745
H        -3.84980055336815    1.23648043243251   -1.66102415791298
C        -1.53142243142627    0.87213003356287   -2.78558948087844
H        -2.36487803305783    0.86217697432066   -3.50383137584285
H        -0.71023568160260    0.28640430130922   -3.19302273936386
H        -1.19751325760262    1.90123097722976   -2.66253931085179

