25
CSD_code = ZULGAO | q = -1 | S = 0 | Stoichiometry = C6H8N2O8V(1-) | MND = 7
V         0.86753947741146    1.94189966424964    6.41127571341315
O         2.15868306316657    2.31184931907465    4.91871830412083
O         3.48790464464595    1.42620070743011    3.37079204842982
O         0.52946070620568    0.86240201101223    8.19871969074542
O         0.91570733378991   -1.10184338378701    9.16461084783822
O         2.92187881202187    2.39445433710299    7.81233169014854
O        -0.26170703629650    1.30147121372394    5.58348061315453
O         0.16075827972433    3.17329539312508    7.41069372472688
O         0.69789517926240    3.67044519255310    6.32303520261964
N         1.93480405934523    0.13644146777525    6.19781919689161
N         3.21897950790075    0.75411840431065    9.34351297021981
C         2.17804272265209   -0.03677532699764    4.77478029313617
C         2.67017570876626    1.35675050625211    4.27351575360784
C         1.07994402948267   -0.89905848651450    6.76459819911811
C         0.77977146782706   -0.37064493916950    8.18696800992263
C         3.19341274549400    0.19646665731877    6.94649445070265
C         3.04935604038108    1.21867112353598    8.07688833849027
H         1.22506140325337   -0.23657954761071    4.27530907814837
H         2.89712507801433   -0.84051325317361    4.55882025097255
H         2.97214936381620    1.42934713821812   10.05641919216800
H         2.89114967097192   -0.18206906215938    9.54903405430121
H         0.14091781334652   -0.93224141828284    6.20518886323997
H         1.56576733595980   -1.88767922359842    6.77290187295312
H         3.48526345202306   -0.79376879546062    7.32647560799369
H         3.98335914083443    0.57966030107207    6.28871603293717

