68
CSD_code = ZULLUN | q = 1 | S = 0 | Stoichiometry = C33H30N2OPPd(1+) | MND = 4
Pd        1.12342872124407    4.66204573579866    5.39600568920909
P         0.89581171711646    5.07022548268605    3.17587144678035
O         2.05000293564208    2.67653210778262    4.79238827729756
N         1.18306818080098    4.36233407637064    7.37405415662377
N         0.40959383385479    5.04683879104177    8.10096752759564
C         1.39503219685827    1.65270827528425    4.73121799713834
C        -0.03625841082717    1.60364864754193    5.18149649278097
C         1.97599814436851    0.38573052716612    4.19334009398484
C         1.91358526610952    3.32931952918577    7.94418732022236
C         3.16381441989514    3.04989683347008    7.38065478033100
C         3.93646402623449    2.03650833878228    7.91023322687239
C         3.46678452894932    1.29476960132557    8.98577918475896
C         2.23107523412462    1.57954027239074    9.55002199931308
C         1.45227011998193    2.60044381627614    9.04269116278233
C         0.14347976265859    6.27456341868499    6.06512902918560
C        -0.30375629710603    7.42445838923909    5.44464399286451
C        -1.06664754707604    8.35418666928538    6.14510655387730
C        -1.40326776708994    8.14648513324968    7.47636083311112
C        -0.94761278451660    7.02478962778778    8.13580526712454
C        -0.16391589746996    6.09712082625707    7.44150133867520
C        -0.76492396604202    5.66389181611833    2.72803418489014
C        -1.80019222871423    5.24453513365542    3.56247947151815
C        -3.10293763047364    5.62130890861170    3.29914860739215
C        -3.37671129662567    6.42706046056893    2.20424173648946
C        -2.34919177066547    6.85452021872347    1.37926499065980
C        -1.04255754142244    6.47458843834883    1.63508439365854
C         2.13401533594645    6.29781409290609    2.67801911255942
C         2.41249733685407    6.60249486451166    1.34825484233574
C         3.38210105508306    7.54243606521025    1.04934725623067
C         4.08432018782133    8.16841426012506    2.06777849559930
C         3.83258484761798    7.84427998756636    3.39188019120065
C         2.86192999810245    6.90806428545794    3.69941928302401
C         1.17467011905948    3.69071651900944    2.02618883147313
C         0.11546399392276    2.97659101800517    1.47464124382404
C         0.36877071531029    1.87841302980382    0.67086445908783
C         1.67321742277349    1.48135484016380    0.42437510687089
C         2.73072849235342    2.18324856452589    0.98387384129448
C         2.48490581204183    3.28065843017655    1.78661890250061
H        -0.13439368376860    0.92071701371041    6.02482716091379
H        -0.67207218147968    1.23258774399370    4.37964143566674
H        -0.37235973989851    2.61068855249739    5.48835261523459
H         1.72121220504160   -0.45977144852647    4.82673064377717
H         3.05506438866550    0.47198287369805    4.09810029304536
H         1.55509678689083    0.20077852221925    3.20505374480222
H         3.52579546329158    3.66382546072488    6.55572352908641
H         4.90775457168500    1.82414155780318    7.49066804842217
H         4.06974132350169    0.49660707405764    9.38999043222552
H         1.87748220763995    1.00471306704633   10.39185733333502
H         0.48842771486123    2.84153929319194    9.46471384691013
H        -0.05903674454908    7.62174446605687    4.40692812670101
H        -1.40211409432181    9.24807539891277    5.64112917997739
H        -2.00762263722006    8.87193995582621    7.99798558373719
H        -1.16584853061028    6.84845003138644    9.17703880453622
H        -1.56435494329876    4.62904951588515    4.43441207899573
H        -3.90340722938045    5.29516591965927    3.94566302115314
H        -4.39232005706237    6.72802385938171    1.99901118303498
H        -2.56510942499656    7.48995535132377    0.53397186246672
H        -0.24381145196662    6.82002015108305    0.99621967189592
H         1.88891119044915    6.08857417211891    0.55382183349103
H         3.59643753549874    7.78241742398336    0.01902445173767
H         4.83920180658478    8.90107991297063    1.82763301380702
H         4.39510822513348    8.31959472892300    4.18101017794795
H         2.66312803971579    6.63432543378934    4.74465493925059
H        -0.90272351161652    3.28826852418111    1.66464053238085
H        -0.45433707243599    1.33391752313558    0.23297835082225
H         1.86677751506597    0.62711041622110   -0.20614954352338
H         3.74681814190136    1.87387640171018    0.79171352730686
H         3.30471291995246    3.82906406998508    2.23168279960896

