61
CSD_code = ZULROP | q = 0 | S = 0 | Stoichiometry = C25H31ClN3Rh | MND = 8
Rh        6.11280378037813    4.37935377266970    1.81642330850183
Cl        8.09447962004701    3.52516132449911    0.98996623109230
C         6.89422292811247    5.07067651005169    4.63498501467247
C         6.76121567464845    4.05311559215604    3.68598352850937
C         6.97621031569286    2.74241353177038    4.09758538175678
H         6.91672528953360    1.94335218360979    3.36942994334734
C         7.28220333459465    2.43338615954013    5.41246180730232
H         7.43977014726582    1.40520143795612    5.70398281391371
C         7.38775705337633    3.44708612535614    6.34612611211727
H         7.62605923189422    3.22344078705099    7.37570966554410
C         7.20556998420933    4.76100884893324    5.95639942021522
H         7.32385704701533    5.54764644456317    6.68611537626939
N         6.75935940260068    6.44222483472224    4.28212660669920
C         6.27068700778170    7.37300979220539    5.27351131309418
H         7.04573453681133    7.71706199769976    5.96516291246188
H         5.48159918470647    6.88277381217601    5.84426143592561
H         5.85086204603572    8.24328048596824    4.77046474360395
C         7.19664960287197    6.88296566546631    3.07271517291907
N         7.11422468912497    6.13240281727800    2.02539637946828
N         7.64629828241369    8.19108634330331    3.01499646825586
C         7.69333811834272    8.84392053481349    1.72117645506970
H         8.56093731289009    8.53021545233409    1.12909904289497
H         7.75495868471515    9.91993505756897    1.86648751340251
H         6.78161015483338    8.61547511479002    1.16934675198389
C         8.53669491920090    8.65468379822213    4.01088290159502
C         9.43349322092616    7.77501360610500    4.61298237491187
H         9.45706113257357    6.73984579619699    4.30461192911247
C        10.29003335901023    8.22591948464665    5.59996602506547
H        10.97924758593904    7.53439167437370    6.06051207805475
C        10.27449175033160    9.55566005681304    5.98637217214677
H        10.94825220681513    9.90637240450857    6.75298523078912
C         9.39074607104656   10.43421154212305    5.38237201092258
H         9.37084043367448   11.47200103606854    5.68012081327231
C         8.52184451214839    9.98948774125690    4.40332947208291
H         7.82231541152031   10.67843753831142    3.95379729744976
C         4.79701045775102    3.78223591801361    0.02719623054849
C         4.36162965224701    5.04083127223560    0.45171928441152
C         3.99525319551939    4.93898781623330    1.85448316488122
C         4.09254000298217    3.56601089388031    2.23661158397932
C         4.70246801456336    2.86700869463478    1.15506823086688
C         5.19633531215648    3.35816447809470   -1.35068037085580
H         4.49605740065468    2.60847761713746   -1.72282654704649
H         6.19201774677553    2.91575315789373   -1.33986111902317
H         5.20007878984653    4.20155645394233   -2.03681892321774
C         4.17163236988862    6.26407062089467   -0.39323126503052
H         4.87559799155782    6.28544365161558   -1.22273181248257
H         4.30236228789292    7.17182853248659    0.19349976826253
H         3.15943001274517    6.27412899111849   -0.80381025312522
C         3.28966353068076    6.01060827825999    2.62922825924023
H         2.22812836665831    6.01718936914160    2.37206301355353
H         3.69723666171422    6.99475316798165    2.40419351446371
H         3.38016826940027    5.83941759966992    3.69959752880026
C         3.56771918935411    2.96551158958786    3.50418649583965
H         2.52454285445749    2.67577735911174    3.36124835071389
H         3.61670872864623    3.67378822059711    4.32839667862774
H         4.13388815413144    2.08123311906203    3.78634110371858
C         4.87019452843481    1.38301998148618    1.02570463854649
H         4.87407512025642    0.90157809660784    2.00081339143237
H         5.80280050745681    1.14632869333606    0.51680944348791
H         4.04663727698659    0.96812696304651    0.44033364545374
H         7.63126954414959    6.44885015880475    1.21032025951430

