63
CSD_code = ZULTIJ | q = 0 | S = 0 | Stoichiometry = C31H26AuN2OPS | MND = 3
Au        0.67801486261066    2.47350904088583    3.22161285775638
S        -1.00534893118441    4.09180543381068    3.12919123645034
P         2.26567025888095    0.88508805849738    3.52070407289336
O        -3.16833588938561    5.38295919206343    1.34232443422365
N         1.55032142319364    3.95202799191516    1.42363094233460
N        -0.79941691815756    6.52012931923653    2.04501432071444
C        -0.32528595199916    5.33723876188207    2.12772955742146
C         0.88182343374607    5.09433410189464    1.31519101786880
C         1.29382986971759    6.08338505745613    0.41348637483423
C         2.40842789728878    5.86149048280900   -0.36727930956390
C         3.09143030699625    4.65682440507391   -0.24352934175698
C         2.61524012109154    3.73749497321572    0.67067894562368
C        -1.96991817192404    6.95415117714738    2.61933484908982
C        -1.94270430846318    8.04603782161101    3.47962461997631
C        -3.10883609968010    8.54895707234900    4.02714583554498
C        -4.32180337892893    7.97427991399226    3.70153942084684
C        -4.37488435691136    6.90660636835240    2.81657624825908
C        -3.21499135593529    6.39019346032565    2.26367406333137
C        -4.36318045656141    4.72862426259572    1.01260146567057
C         3.92283614971736    1.54175954027284    3.18876517282983
C         4.87592499388026    0.88533409680884    2.41814040927359
C         6.09244433324464    1.49674480064038    2.16844922506741
C         6.36002440926757    2.75568803576434    2.68081636382574
C         5.41008777596652    3.41212567623458    3.44892548477833
C         4.19241361512006    2.81029758385968    3.69830496217828
C         2.40705647147000    0.16376328884681    5.17816361280879
C         3.61795814799004   -0.02136233119400    5.83621101185328
C         3.62693976276810   -0.56883590475026    7.10708903317128
C         2.43857370865937   -0.93079555946950    7.72049333531428
C         1.23029731856822   -0.74238292125172    7.06677712195917
C         1.21219161510502   -0.19008173544440    5.80067100972806
C         2.14866358425137   -0.55938678009339    2.43094713226582
C         2.50699562207572   -1.84582334788693    2.82029406693008
C         2.38860671326425   -2.88949945218267    1.91977464310444
C         1.91677115878303   -2.65598972896424    0.63787585748944
C         1.55437533928985   -1.37512065897431    0.25042878449586
C         1.66334861002256   -0.32840630859452    1.14622957036978
H         0.72300312887012    6.99525926043462    0.35772663517215
H         2.74486057654729    6.61133930828030   -1.06887001337071
H         3.96434786885540    4.43894303377775   -0.83869621732565
H         3.10483570678922    2.78137976149227    0.81613658981102
H        -0.98343368948539    8.47172377063288    3.73432996741905
H        -3.06668590866911    9.38587691285908    4.70902393583726
H        -5.23878975000670    8.35438515308011    4.12788926581297
H        -5.33498397713484    6.47813133024202    2.57179371337126
H        -4.08544818272840    3.94146371150090    0.31236140558871
H        -5.07652502290018    5.40712584584182    0.52905949643414
H        -4.83060108883397    4.27680879816191    1.89412542765444
H         4.66388141395427   -0.09481181863159    2.01281967714606
H         6.83322695779551    0.98832458919536    1.56864072516343
H         7.30883418253963    3.22920994240006    2.47700868817767
H         5.61699587973700    4.39586393928465    3.84339626924080
H         3.43150736284983    3.31668106235905    4.27891628159893
H         4.54454854933589    0.26367120698219    5.35668911703558
H         4.56614656263587   -0.71266920941933    7.62099612851976
H         2.45325870436982   -1.35480289854497    8.71342624535631
H         0.30434172583373   -1.01794199114022    7.54906479788670
H         0.27745859355086   -0.01943733347926    5.28114090732344
H         2.87376011963847   -2.02523692071255    3.82168473867698
H         2.66522327084828   -3.88960526845982    2.21991838895230
H         1.82517684589376   -3.47576061198348   -0.05900796991063
H         1.17984552541040   -1.19598943591795   -0.74648412746250
H         1.36795296051273    0.67580267291547    0.86780151687851

