77
CSD_code = ZULXOT | q = 0 | S = 0 | Stoichiometry = C29H36CuF3N2O5S | MND = 3
Cu        2.33701923802086    7.10448576789237    7.48431898944087
S         0.19408249390911    7.39929039790723    8.40967461731282
F        -1.28577885372397    5.29350404033511    7.73137449930249
F        -2.41044856185164    7.13153916484962    7.75817981456815
F        -1.86963174109194    6.16839681132870    9.60973112087087
O         4.12902501259428    3.72298235821712    7.53054105397680
O         3.28371984282159   10.63913172944364    6.16231988200664
O         1.10064005485119    6.39885546509973    8.94686448632224
O         0.42173210197277    7.70340318443625    7.00936483232381
O        -0.05994767457439    8.52975439329472    9.25232016220530
N         2.83422652904457    5.33114058818102    6.68918949995657
N         3.14318382754016    8.94418552677343    7.60235632020281
C         3.94552902507506    5.02179873648699    7.24420808652010
C         2.94922379611131    3.03072056888059    7.12346420941306
C         2.01663274316912    4.13547066230169    6.56505161023320
C         1.50127146905860    3.94800744149703    5.12154648696894
C         2.65869227701822    3.89250420700431    4.12465954220043
C         0.67020566735143    2.66564607709333    5.04592543756018
C         0.61446395753896    5.15190602836431    4.79235532636071
C         4.98584747728648    5.96361787611345    7.64811878325580
C         5.64109505503640    5.70263680266684    8.85058770650154
C         6.61483916768915    6.56370304000094    9.31316650454872
C         6.96155934541093    7.67311263262402    8.56285505442350
C         6.33509300567078    7.94440839287317    7.35278432390289
C         5.32097625281205    7.09652534863435    6.89686582511970
C         6.77400117586665    9.12086151955156    6.53200001709527
C         4.72700970635387    7.35528842082118    5.56730863136797
C         5.11506892756144    6.55724171031210    4.48760867591374
C         4.63460321734900    6.84783936600581    3.21650212558301
C         3.79962866077171    7.92923005453378    2.99789852220146
C         3.44228977771299    8.74323481119978    4.05346870095354
C         3.89666869409164    8.46022556936574    5.33983066969388
C         6.07055990251638    5.41836541861615    4.68621166354744
C         3.44759403737777    9.33459746690809    6.41994853310536
C         2.77111322294333   11.24368370380058    7.35121926979950
C         2.61775134482950   10.07335951317193    8.35368104509716
C         3.31295211735241   10.21324715229653    9.72467341876275
C         2.64813560786472   11.35445487896810   10.49576236901177
C         4.81325454249894   10.46794321260872    9.57704745460499
C         3.09572106904759    8.89450191606807   10.47270779429356
C        -1.43909376108531    6.45899076757141    8.37988351591795
H         2.52619487138305    2.52482947984377    7.99333177982788
H         3.23556906410240    2.28529223757115    6.37698420624412
H         1.14394230461790    4.27026374142267    7.21345483823051
H         3.34543082701694    3.07847969158535    4.34520629073627
H         2.27175234370912    3.73931597688845    3.12024547967861
H         3.20481079731005    4.83069292838697    4.14579459889647
H         1.27929701707142    1.78240512367632    5.22250318188274
H        -0.12699367400028    2.68750227773577    5.78416798940351
H         0.22050578271801    2.57659613484636    4.06004582607968
H         0.34406385247101    5.14555270576464    3.73920590345634
H        -0.29643598171116    5.12468736393060    5.38277757941710
H         1.13338489152023    6.08066373118392    5.02181140380239
H         5.36975580663348    4.82413889031482    9.41351571859696
H         7.11349708631291    6.36569924381173   10.24938836194911
H         7.74104156860348    8.33384071570182    8.91399723429464
H         6.95894877880748    8.82160661788094    5.50192159627521
H         6.00430957858521    9.88970254452289    6.51392343741554
H         7.68245146491497    9.55440913843456    6.94267574932665
H         4.93118299817166    6.22444794475440    2.38525403735620
H         3.43941284240845    8.14229261843838    2.00326284555028
H         2.80425333651349    9.59859691089818    3.90017481277055
H         6.38377231292041    5.01106863531709    3.72825099850209
H         6.95062808823519    5.74970315300362    5.23478991104975
H         5.60782401812399    4.62195257420321    5.26502724787276
H         1.81783153849172   11.71946965479443    7.11426751085992
H         3.48434297512973   12.00593641051491    7.67644351125377
H         1.55925110562149    9.87031125562495    8.55296850503116
H         2.77324556688708   12.30555121178179    9.98241928331151
H         1.58505670156319   11.15774187827571   10.60658209834430
H         3.08795573631409   11.44029520731302   11.48650112417525
H         5.01760623993540   11.41056785457471    9.07377164855152
H         5.27495410028139   10.50980480980484   10.56060498680653
H         5.27239109100134    9.65905517827343    9.01610669864011
H         3.53969981318724    8.06724364557074    9.91919369650768
H         3.54489314980619    8.94184931898304   11.46209852398275
H         2.03256225325695    8.69294046977001   10.57655480188940

