33
CSD_code = ZULYAG | q = 0 | S = 0 | Stoichiometry = C16H11ClCrO4 | MND = 9
Cr        0.74841119007841   -0.40820960609167    5.87366058840518
Cl        2.60649149696235    8.03756428133772    7.24065438168285
O         2.30191717752001    1.52757105986388    8.50722525405091
O        -1.01713543454101   -1.79312568273581    7.82812708576691
O         0.59935923526591   -3.11419289011157    4.64117714285546
O         2.72973678469617   -1.85229853280022    7.55654494434550
C         2.67745840856928    2.02529270094626    7.24403680533796
C         1.69307224806049    1.58853651607092    6.17390060176349
C         0.32292031790775    1.73317326545470    6.42190179827521
C        -0.61534270991943    1.36593617674984    5.44068060867293
C        -0.18344389757579    0.86721885875021    4.21306000672930
C         1.19715809550140    0.74053550346548    3.95467863346372
C         2.13102241145780    1.11759221462593    4.91758860230493
C        -0.36765762708426   -1.21851507947583    7.06681279388322
C         0.65058584254937   -2.04650909768011    5.07531727256783
C         1.98036772378908   -1.27555203107786    6.88648571664617
C         2.68467295396865    3.54170721822097    7.27256795878590
C         3.26438697370858    4.24670846318298    6.22479784537705
C         3.24274476459546    5.62832066266749    6.21022252271309
C         2.63480087921789    6.30924333607702    7.25386479541337
C         2.05440771005845    5.62022288817354    8.30582133582847
C         2.07880833054260    4.23708644383139    8.30842009777576
H         2.42645277452673    0.57079570165040    8.52287192563627
H         3.68724662535643    1.67121697016944    6.97727499076005
H        -0.00114963806129    2.18003210572046    7.35358400096551
H        -1.67052236850255    1.53626845513084    5.61817711133090
H        -0.89849774072805    0.63880763850424    3.43251752068458
H         1.53000324348204    0.42285153037297    2.97361595766042
H         3.19114682869693    1.08612846175023    4.69284234295936
H         3.74169092547782    3.71543146503983    5.41400875953790
H         3.69568830589021    6.17587429799886    5.39884415464099
H         1.58893386377388    6.16063286419409    9.11483370764501
H         1.64186430476022    3.68505384002394    9.12488273553445

