147
CSD_code = ZUMREE | q = 0 | S = 0 | Stoichiometry = C71H56FeN6O13 | MND = 6
Fe       14.85198520539459    2.67060158223163    1.47179185755453
N        16.50921409134888    3.80766540742357    1.56510681780966
N        15.36931327696247    1.76257250452517    3.19485242004545
N        13.25364116408436    1.44889096151883    1.32206927676883
N        14.36828717880387    3.52006032560501   -0.28695226883383
N        15.96846929992154    1.22943721769506    0.43809243647975
N        16.84104091573782   -0.70169694363641   -0.13869460741475
O        18.06079709895057    5.34372410365571    5.32316861279031
O        13.72344956928753    6.09616117554580    6.01208303823602
O        13.66628024553822    7.94543484541211    4.74602709102340
O        12.50664027092940    0.63312509962315    5.91187783440681
O        10.27819481320151    2.75666747144958    5.76252290729940
O         8.81350987587691    2.74260273370448    4.07481314882940
O        10.27120748577431    3.84068698282085   -1.29967366975580
O         9.23285600029351    3.75573119614055    1.54290964739415
O         7.47922315245398    4.87373140815206    2.41606792979704
O        15.69991912766888    8.17514825244859   -0.38414433014719
O        12.76868346092956    8.06458794006765    1.97820679130367
O        11.56489878422609    9.41673540968156    3.32596439497527
O        13.55891869434404    4.84523193189278    2.85404773187670
C        16.89953244737573    4.75243665450949    0.66775314400572
C        18.16387776254273    5.31100969302248    1.05680972713188
C        18.52209990118133    4.69782922400367    2.20865398500137
C        17.47249955966023    3.76951707433036    2.52414498979377
C        17.46776804819893    2.95312491162754    3.65415376898000
C        16.47703809202144    2.01753226894415    3.94258364068184
C        16.49706407587588    1.16783738086489    5.09976206881357
C        15.39571667036394    0.38614638835574    5.02597875714679
C        14.68714486024955    0.77729171421395    3.83946704175467
C        13.50035180849278    0.18225999168859    3.41071878485791
C        12.84328414428704    0.52074005727870    2.22916159258469
C        11.63706128011154   -0.11394551848263    1.77277107229167
C        11.34962627865813    0.42234132454043    0.56482387562397
C        12.36639013061325    1.40052899273229    0.29275292639651
C        12.39896267377308    2.17730487348298   -0.86240172452332
C        13.32615778404230    3.18875567819251   -1.09445329964071
C        13.31758330419778    4.03076972171005   -2.25929984575817
C        14.35517417037971    4.88764977275745   -2.12939998672698
C        15.01584872367212    4.54893470482666   -0.89868424754329
C        16.19380964391054    5.15118162247890   -0.46408755344876
C        18.61575965323356    3.07068444931269    4.58139878506376
C        18.85671237414854    4.22735916479161    5.33181896036882
C        20.00828960907219    4.31017986849763    6.11202836767510
C        20.90519190705437    3.26212887801260    6.17082145746942
C        20.65458702508606    2.10221035106154    5.45686696877525
C        19.52216705109989    2.01808108751358    4.67003698663575
C        12.95781883160702   -0.92443263384400    4.23276132225472
C        12.48959381768222   -0.67409066667840    5.53525026302400
C        12.06093929524963   -1.73481038707765    6.32246054137668
C        12.06699588828555   -3.02645773677894    5.81993106617924
C        12.49413445605168   -3.27451952865353    4.53008533003780
C        12.94238398817489   -2.22274904365063    3.74804526843240
C        11.39704074288309    1.89064069449757   -1.91824543058017
C        10.31104155278777    2.75803107666925   -2.12114754817153
C         9.39060711302890    2.47479064827680   -3.12334746168706
C         9.53984922786269    1.34447559485243   -3.91019241290010
C        10.59997961303953    0.48214087624569   -3.70571462073664
C        11.52280664116144    0.76182726258156   -2.71123257118801
C        16.79572409556624    6.18460171957619   -1.34866712465788
C        16.51647954274787    7.55358453456742   -1.27969425932923
C        17.07161845792306    8.40783711482564   -2.23663576535278
C        17.90296508221100    7.93446446563297   -3.22842604335991
C        18.21014743230230    6.58443207864745   -3.27954684725125
C        17.65188501957418    5.73048218785865   -2.34999500446040
C        11.93709473617394    6.33359346282923    4.50171635289321
C        11.39762785258418    5.12976279156240    4.93797376304331
C        10.29851184353823    4.58678568592956    4.28736359553054
C         9.72931111391826    5.25769305770086    3.20166679599857
C        10.22612435214861    6.49010979778542    2.80967653050897
C        11.33121203658483    7.02814788484556    3.45101867271257
C        16.65973933611868    5.20689840596756    5.50139342232019
C        16.15309341876659    6.59954963345063    5.88127350277454
C        14.86688554216693    6.59974409840384    6.70064093960013
C        13.18720519523786    6.88895723180718    5.08077718866373
C        12.06547920250378    1.02592619406168    7.18710694220824
C        10.53843649796434    0.98810973108969    7.37037435138679
C         9.81152929253724    1.45896470716005    6.11966772984261
C         9.71417286987814    3.27914884116825    4.67514588653508
C         9.09241407384563    4.60034166130311   -1.18261452617044
C         7.92718127980223    3.84042563105960   -0.53050002519191
C         8.39470556762766    3.01251286880452    0.66840878372831
C         8.64842371607903    4.60369361116219    2.38386240759539
C        15.55096159560527    7.68170883846466    0.93690812900389
C        15.02576384996145    8.84027953030629    1.78358390819232
C        13.56336106796238    9.13554648995064    1.46886917152147
C        11.90926220168659    8.32802101809422    2.95638807572977
C        14.00509815722496    3.93368232715605    2.31663920452290
C        16.01964916339791   -0.05492774313391    0.70730489483166
C        16.78899338667728    1.42698189961144   -0.62797202299524
C        17.33881590414770    0.23564804844877   -0.99797771459052
C        17.14170362209816   -2.10507040343707   -0.14919540633983
H        18.70029867867851    6.06041114738960    0.50579336821614
H        19.40871400369049    4.85085352182988    2.79217855129333
H        17.25807961585423    1.17191413819831    5.85642824265068
H        15.09187495172661   -0.38698806815760    5.70460327282422
H        11.09062866604551   -0.86329042146530    2.31254312623041
H        10.52856025081227    0.18930681852634   -0.08637746955852
H        12.60480098365938    3.96804124193034   -3.05817503488592
H        14.66526462430089    5.66860819437549   -2.79696112603450
H        20.18068199968890    5.22068604820270    6.66523240124761
H        21.79264106765051    3.34708329703953    6.77983155546695
H        21.34381714064462    1.27243429092444    5.50418394865637
H        19.33078498352679    1.12812390539509    4.08734355331568
H        11.72702810638485   -1.57157943807002    7.33501875467832
H        11.73012182670028   -3.83834207062475    6.44714530538180
H        12.48839163538825   -4.27967972407377    4.13686008094438
H        13.29538309627143   -2.40703271017869    2.74317733552266
H         8.55734331748646    3.13501013085756   -3.30763700938377
H         8.81644630296556    1.14175921845085   -4.68603697267116
H        10.71030549133847   -0.40111197196189   -4.31630570826859
H        12.35866364226507    0.09862316943550   -2.54051791261929
H        16.82381373337822    9.45606407270607   -2.17146338380095
H        18.31834054758927    8.61741301422764   -3.95414977198413
H        18.87039637013779    6.20015579809725   -4.04217945276971
H        17.86803619691348    4.67198933696308   -2.39373118370864
H        11.85794824095665    4.59775314817700    5.75445260087772
H         9.77149913742845    7.01933056692255    1.98589141518862
H        16.45896606443553    4.48963445817126    6.30980585014954
H        16.16912908493808    4.84381761543576    4.59100408981115
H        16.01483342248157    7.19762824847009    4.98124172367112
H        16.92600484044928    7.07844851628700    6.48568229349032
H        14.96434791903746    5.95557174102145    7.57757057232912
H        14.65339135913604    7.62743830595705    7.01635954400250
H        12.40684559363228    2.06098822063623    7.26713647771929
H        12.55270836337163    0.43497733776008    7.97428422312531
H        10.18939822223120   -0.02128703375310    7.58939679946702
H        10.28409362629880    1.63183908840689    8.21275121269752
H         8.72924513879720    1.49745157147923    6.28849705763590
H         9.99877365547967    0.77962283025692    5.28004573121118
H         8.77931990907317    5.00802287938948   -2.15333769350832
H         9.38954809474613    5.43412091986324   -0.54114323318710
H         7.18406656943706    4.56984922674344   -0.20666776160938
H         7.45875219910904    3.15776257163399   -1.24054706977342
H         7.52975798588084    2.64372117971508    1.22852295724026
H         9.01534117172670    2.17448566541619    0.34565008213600
H        16.51896442223551    7.34364017862738    1.32434110286492
H        14.84471357901992    6.84343005445269    0.96813718475804
H        15.10319815356241    8.58604223957862    2.84094910814619
H        15.62447036110579    9.72894613621171    1.58239830708090
H        13.40465122808183    9.17859349798190    0.38845382344174
H        13.23816294716592   10.06968453162286    1.93649857551881
H        15.48193142255482   -0.53629407597420    1.49985366235660
H        16.92648886840415    2.40036066343254   -1.05199950336555
H        18.02512692015436   -0.01685725197760   -1.77965939858208
H        16.63012779609850   -2.58902164094652    0.68060870528177
H        18.21665986273778   -2.26388217192884   -0.04564056743098
H        16.81072024173085   -2.55944565441667   -1.08534890281547

