91
CSD_code = ZUNCES | q = 0 | S = 0 | Stoichiometry = C40H44ClIrNO2PS | MND = 8
Ir        1.64756968655352    9.13231285868431   12.78751291653762
P         3.92140848193100    8.83061283222501   12.95644873851962
Cl        2.08859053304488    9.90422424181246   10.59309501285752
N         3.97113940058103   10.44594743632294   13.47335120975998
C         2.61165053851835   10.87291064694594   13.36971866797461
C         2.25789574165180   12.10466121503501   13.73561408081115
H         3.00457887071425   12.73818270217199   14.20366670808836
C         0.93483354903984   12.70050104487079   13.60741852624270
C         0.49594672284532   13.62379704008073   14.55722296592525
H         1.13805063395158   13.86607832733966   15.39242663324538
C        -0.74770582812058   14.21538791133384   14.44660508893182
H        -1.07847755806814   14.91967823993364   15.19695598070852
C        -1.56806323779211   13.91516865921049   13.37106717508590
H        -2.53698637720588   14.38472755446603   13.27930722351811
C        -1.13069225319271   13.02087028740415   12.40687855549679
H        -1.75663645614466   12.80540182958078   11.55196063886616
C         0.10626360749088   12.41418828623744   12.52331936468521
H         0.45529672471771   11.73334953325739   11.76349930350126
S         5.25323151871397   11.37552635267793   14.01844458586493
O         4.93650378925270   11.96536892466786   15.28663747891358
O         6.40045934084561   10.51127574440693   13.97998427449726
C         5.40025733542177   12.65297248695277   12.77991833922799
C         5.88421774362643   13.89019707139139   13.15922611393856
H         6.14736673329319   14.05310188490697   14.19251077177338
C         6.00506323212732   14.88901672775761   12.21016930642108
H         6.37923775678710   15.86043940400452   12.49808738273350
C         5.63836671111513   14.65776887794302   10.88794309223073
C         5.15142390686081   13.40432841332311   10.53288523413194
H         4.85235257643246   13.21326092005360    9.51349671031038
C         5.03002829157333   12.39763615488922   11.47431404712561
H         4.63148345996181   11.43367350733920   11.19683886255200
C         5.81376032448531   15.73026179409958    9.85464143611182
H         5.63370237265971   16.71070571688617   10.29963164299626
H         5.09938485548371   15.58548537030190    9.04271981259723
C         7.23774158826897   15.69208610093786    9.28529957348344
H         7.95283504057862   15.82831608020610   10.09969867072262
H         7.42020829785853   14.70853370800497    8.84688005237385
C         7.45811323424441   16.77098422408121    8.22833274205632
H         6.74379361170847   16.63024564013464    7.41411767760851
H         7.26864162271433   17.75265249760329    8.66852725471158
C         8.87574229377189   16.73118760939293    7.67121069478655
H         9.60238053008339   16.88908951418131    8.46522348348418
H         9.01400854484181   17.50553313385661    6.92049580009098
H         9.07742423887090   15.76649543003255    7.21091820809435
C         0.76115538065191    8.10392319784653   14.50774687894461
C         0.84164137913459    7.11377747074912   13.45130479077025
C         0.03552869075584    7.55010737893293   12.38939953839029
C        -0.58849984715873    8.80047800568662   12.78126577285427
C        -0.20052295346159    9.08840146060028   14.11819447938875
C         1.29128628313030    7.92589276615712   15.89434282361345
H         1.45979247384165    8.89019950646966   16.36842218983598
H         2.22980532866655    7.37458466935016   15.89260917433792
H         0.57138433074939    7.37100881151499   16.49988622268037
C         1.57182966420998    5.81296521387364   13.56318751006730
H         0.95750313941959    5.09149554030328   14.10545506549876
H         2.50862906533654    5.93217282269437   14.10636433312370
H         1.79591948199473    5.39878022387101   12.58256152451126
C        -0.28064067228333    6.82925768028719   11.11730477350623
H        -0.14664325735804    7.48740447750176   10.25978407905827
H        -1.31951037756551    6.49508067323282   11.12681192646732
H         0.35857631674874    5.95922063011151   10.98774985773420
C        -1.68390210453278    9.44694973120579   11.99611007455082
H        -2.56270565471583    8.79882851144593   11.99108789664307
H        -1.37654073384290    9.60543208718747   10.96391206844022
H        -1.95973520560646   10.40506726837944   12.42623705805707
C        -0.76763607410771   10.13193712124565   15.02452736477072
H        -1.29058280480588   10.90153754817432   14.46479366010391
H         0.01566855103911   10.61347187706511   15.60547374086645
H        -1.47040075823018    9.66649601281013   15.71848964111787
C         4.77292209436870    7.93614215038588   14.28136350685757
C         5.34051982321677    6.69360267609497   14.01868303100398
H         5.32390149060295    6.30103151155046   13.01064692669244
C         5.93600105419274    5.97644068572275   15.04047241219565
H         6.38375037505431    5.01531588486724   14.83402217812040
C         5.96188309125084    6.49369200162729   16.32569159249411
H         6.43309113074011    5.93572797237535   17.12127395598213
C         5.38702767691797    7.72702077144905   16.59039990853002
H         5.41072257158607    8.13091957825356   17.59142163896318
C         4.78177432124304    8.44494389144719   15.57546885168494
H         4.33985816686753    9.41025785243355   15.77387395663182
C         4.98031751929566    8.53050957938769   11.50063937357620
C         4.44117798659300    7.72221478567246   10.50278160161885
H         3.43130782197132    7.35271486553874   10.60858146681634
C         5.18412323288628    7.41897431931989    9.37738856572551
H         4.76057959650460    6.79660762570813    8.60325406673956
C         6.46713968932796    7.92363988974913    9.24054843406010
H         7.04535015413818    7.69527170945566    8.35717831512459
C         7.00856426409463    8.72001992677854   10.23653102376354
H         8.01085615321703    9.10884408897454   10.13263952609118
C         6.27500321738034    9.02095167563731   11.37140042152940
H         6.69933719449129    9.62464193393693   12.15819476093955

