63
CSD_code = ZUNLOJ | q = 1 | S = 0 | Stoichiometry = C20H30Cl2N10Y(1+) | MND = 7
Y         2.39811240150118    4.44382970417622    7.45637603730070
Cl        4.30245609853530    4.22526188750125    9.13653688617972
Cl        0.47133935496748    4.73003803875794    5.87379634401499
N         3.97327066712512    5.68757105283826    6.08958624119041
N         5.84785387858123    6.55750160855252    5.33558032199449
N         3.30928588898665    2.93257436853090    5.76120145099304
N         3.43293050442638    1.79570225538380    3.88192739082232
N         1.81938841471814    2.16698052548042    8.07217484431955
N         1.91570854319596    0.16073088963077    8.96946047964936
N         0.88423239410005    4.56482783941553    9.34678059665609
N         0.11719998054359    4.60824633236819   11.40836923395391
N         2.23328003373761    6.77563178349408    8.10168308053575
N         2.60659927484887    8.69999349928954    9.10067861698949
C         4.87869110420194    6.84508271328932    4.41873397079431
C         5.25981579826942    5.86201398259608    6.32062857555424
C         3.72263588896138    6.30224333665064    4.89550001732333
C         7.23207347158218    6.93148581325841    5.24740736622487
C         2.71196628215228    2.65343102358271    4.61855306050890
C         4.55999192224886    1.50757490676372    4.59484888141103
C         4.47253746792349    2.21676988743456    5.75600894371899
C         3.09298939811311    1.27339082360195    2.58766525282473
C         2.50310913033156    1.36204667829331    8.86186335043853
C         0.78774388321710    0.19967181675311    8.20215225028867
C         0.73799544383447    1.44582063692932    7.65158175226869
C         2.37416749817486   -0.96036651193188    9.74189989000729
C         1.20125293899988    4.49749110329466   10.62514602040664
C        -0.95781664800547    4.75521726768919   10.58025468666485
C        -0.47166423549344    4.72688859675614    9.30712484741989
C         0.07911193320578    4.57954753171553   12.84411152948516
C         2.97299079600360    7.41396065222703    8.98746887818928
C         1.56967955352980    8.89524587910798    8.23483229143880
C         1.34714670757955    7.69821190004095    7.62206508874344
C         3.18422310193789    9.69331299063498    9.96287131185140
H         5.08472781751365    7.39880595272467    3.52622854643057
H         5.77654605855986    5.49708899795399    7.18984769751747
H         2.73621892507571    6.31061607647707    4.47071033783838
H         7.75803163673466    6.57932031283119    6.13238760767751
H         7.68942930550477    6.48837406384056    4.36118741996116
H         7.32831076796002    8.01643267923698    5.18220495371224
H         1.76509532882776    3.06167197209271    4.31398400549507
H         5.31194117541126    0.83970670556886    4.22835771841740
H         5.15840225172738    2.26234862979758    6.58104088066036
H         2.13379871856186    1.68145791465029    2.27612375404283
H         3.85321182856936    1.54939079044030    1.85513459031303
H         3.02320026622585    0.18505178671692    2.62390218826562
H         3.41598688600897    1.63142983889940    9.36161164979797
H         0.12950339690182   -0.63963748199664    8.11342782149675
H         0.00810782587331    1.87292577242510    6.98949859928640
H         2.53308240225241   -1.82596647295542    9.09669026204208
H         3.31221196634101   -0.70284017436709   10.22951669080379
H         1.63728422825498   -1.22459282128915   10.50243696905364
H         2.20157428788467    4.37033537338656   10.99806438883838
H        -1.95457643938989    4.86499179129013   10.95415960226195
H        -0.99503891929926    4.81155117763601    8.37320167202052
H         1.08841398852699    4.45123306638961   13.22995369862590
H        -0.33549751044460    5.51172981122285   13.23130286250377
H        -0.54349584409420    3.75308680460811   13.19066335469285
H         3.77074761763722    6.96462345408649    9.55095941787588
H         1.08758957032351    9.84471553971691    8.12774299273823
H         0.61883502655673    7.43585332628676    6.87771551911205
H         3.99837316565420    9.24902365395547   10.53186262943662
H         3.57250626661331   10.52635880579565    9.37465448782331
H         2.43327913184292   10.07818183832306   10.65485818995191

