63
CSD_code = ZUNLUP | q = 1 | S = 0 | Stoichiometry = C20H30Cl2N10Y(1+) | MND = 7
Y         6.21153198778061    3.86756407488814    3.29707292328750
Cl        5.43888565175585    4.51353992699384    0.95579007155092
Cl        7.06471391560064    3.29801547742860    5.58719768788082
N         4.28158364217160    5.09676151237022    4.10228684310767
N         2.40358607253721    6.24173327629553    4.14327419292788
N         4.43099058762823    2.25763269409136    3.76943305317366
N         3.28112687441415    0.73747613926453    4.86799548229973
N         6.83218529084699    1.72901051291753    2.32155804518173
N         7.05567385446028    0.07078665521642    0.89334035998559
N         8.48847538938601    4.06678720523870    2.48451225432319
N        10.20994801849931    4.40215488831639    1.15624455683237
N         6.89408168847867    6.17872687324978    3.59336273184937
N         7.28800241363268    8.30622107362845    3.19405424179985
C         3.33071605395501    5.64985622705797    3.37505773230367
C         2.78445009548061    6.05548621584403    5.44051138215160
C         3.94824139084962    5.34661237194567    5.40350905057641
C         1.22611066909479    6.93447207688021    3.69873853317168
C         4.33303944322829    1.56889118949437    4.89040889526012
C         2.66796062616831    0.90276736541089    3.66039747441478
C         3.38841796643648    1.84566734049184    2.98894436960053
C         2.86939950741867   -0.16101018498028    5.91049056489322
C         6.59951852042268    1.31700516248034    1.09082358833979
C         7.61456483197535   -0.33881662219583    2.06915459832876
C         7.47170272430363    0.69547119492682    2.94568114945456
C         6.97584130425158   -0.69860746924396   -0.31724137232621
C         8.87232883555278    4.38447115478346    1.26357178321903
C        10.71118409645229    4.07579489596351    2.38319427027040
C         9.63735297931067    3.87051634735494    3.19722058416164
C        10.98095251384688    4.70168864578186   -0.01823230820155
C         6.78129509648588    7.15836807039989    2.71775928622717
C         7.75279338842750    8.04408286642192    4.45039641108006
C         7.50386990900549    6.72493829672308    4.68704428591883
C         7.33932904320091    9.57510437180039    2.52246612934198
H         3.29971440795385    5.63435679429924    2.30053735272819
H         2.21233711201873    6.43418313492781    6.26205215228532
H         4.56625674109761    5.00167949734911    6.21127672883055
H         1.19304527534159    6.92811651179981    2.61124845682805
H         0.33005169063882    6.44623733438058    4.08548831476780
H         1.23780655401944    7.96750004599784    4.05024128999239
H         5.01118397734767    1.66079548132977    5.71972212265885
H         1.79291856467793    0.35134312095154    3.38439459429850
H         3.23138790137717    2.25394225368972    2.00822728043070
H         3.54550611878435   -0.06300280937206    6.75720322386344
H         1.85434939122206    0.07373574692564    6.23483345721397
H         2.89126386950926   -1.19215209295732    5.55392286759632
H         6.10831133413531    1.90349429969031    0.33558144479181
H         8.05784032192683   -1.30639231631054    2.18297977198558
H         7.78060419850138    0.77140876669416    3.97153536944576
H         6.48534277146320   -0.10818371255629   -1.08837635236220
H         7.97519902237192   -0.97333736866532   -0.65868775961465
H         6.40296278284147   -1.61212850938990   -0.14935126165340
H         8.20180199102147    4.60334950170777    0.45219741705643
H        11.76301826475899    4.01775725369492    2.57205190973790
H         9.60795028115099    3.59923065716720    4.23587408042454
H        10.30905709775508    4.92820602162922   -0.84364326681617
H        11.62827517717640    5.56152850343760    0.16184905368291
H        11.60524884510957    3.84882951405422   -0.28979776036883
H         6.34007232426298    7.05550403313805    1.74276730306299
H         8.21042586616757    8.79741059916026    5.05746543336527
H         7.71843258746276    6.13393272855160    5.55763857913828
H         6.89372547229337    9.47931646112356    1.53436281422273
H         6.79000855073974   10.32766418702887    3.09056487858459
H         8.37354712377743    9.90710453319419    2.41722165152413

