54
CSD_code = ZUNRUX | q = 0 | S = 0 | Stoichiometry = C28H16IrN3O2S4 | MND = 6
Ir        0.96459786924302    8.33172965456715    4.68398298784165
S         0.86700698405809    5.28940581333844    1.38966457956832
S         2.89310726977234    8.17109251387895    0.61852675334402
S        -2.15558077606236    8.72008921885475    7.87526683684035
S        -2.94748984971082   10.46001646606855    4.87016153778964
N        -0.21919433905478    7.93126942683667    6.34871588628405
N         1.99847023579274    8.78754676741932    2.96682676181281
N         2.79688743408111    7.56510220901099    5.48240146409865
O         1.63605439254086    9.95985721456375    5.92636870658547
O         3.06677648945118   10.41414639561580    7.56605888099278
C        -0.17259150905535    4.70527028789814    2.62562770382318
H        -0.65517009512373    3.75687000799841    2.48640586299792
C        -0.27781217237693    5.54930982963474    3.69126492713631
H        -0.89255676407216    5.32886517254022    4.54625131514731
C         0.49020170830364    6.72804299250979    3.55680952949494
C         1.17134252232114    6.71056069328181    2.34107431499437
C         1.96763128936359    7.83483195040675    2.04582437035032
C         3.32900356513996    9.71871934839570    1.30587095437525
C         4.11639775970430   10.71138471416578    0.74957890431413
H         4.56102642843834   10.57583041567207   -0.22358132054485
C         4.30649823158902   11.87251770582590    1.47430078699158
H         4.91600507567783   12.66142587929141    1.06117223229221
C         3.71478648147326   12.04009125231699    2.72491598036577
H         3.87089803165877   12.96094196382574    3.26527517499285
C         2.93116408939677   11.05351693754422    3.28392282354343
H         2.46028451609382   11.17637681689766    4.24582604338135
C         2.73871077939801    9.86872643243019    2.57533079602035
C         3.43027726878621    6.43413884606171    5.17900680945735
H         2.94657431397698    5.79187870897411    4.45450004311305
C         4.63515826370437    6.07523363766971    5.75360241312526
H         5.11055321899690    5.14905762041585    5.47084940960749
C         5.20966608417006    6.92141344773635    6.69342910100703
H         6.14714776289379    6.66569754005029    7.16436603333903
C         4.55296343015764    8.09589454399055    7.00656132791271
H         4.93010694320985    8.80756274922127    7.72465176858225
C         3.35111931018935    8.38682046993437    6.37480310404240
C         2.62445246480335    9.71258066343307    6.67226839850322
C        -2.33364194027311   10.73501768097529    3.29302559469910
H        -2.88454960405573   11.37124483179720    2.62691958748409
C        -1.15994987314769   10.08430697360665    3.04579252381662
H        -0.64695117507201   10.15712280942223    2.10263557334133
C        -0.70406342819424    9.31922328560291    4.13971350016290
C        -1.58430712136731    9.44118331235821    5.20834121734960
C        -1.28275272193406    8.72170650814401    6.38020682352110
C        -0.04935085574238    7.25235198534247    7.52269195533248
C        -1.01081040140079    7.56467750989521    8.50486768775068
C        -0.99085294989676    6.98190947830025    9.75962503949004
H        -1.73419281577706    7.24635368568960   10.49460997223999
C        -0.00043614989278    6.05984278498432   10.03623202481333
H         0.04038024595072    5.59583700924617   11.00934478654833
C         0.93769222314695    5.71502673759585    9.06661843799782
H         1.69127602205714    4.97722463381548    9.29757108621086
C         0.92050871172028    6.29436356857609    7.81592616353056
H         1.63442712493382    6.00659089635732    7.06249482218297

