48
CSD_code = ZUNVUZ | q = 0 | S = 0 | Stoichiometry = C15H25Cl4O2PTi | MND = 6
Ti        4.66913906243815    1.42636102836147    3.88944340130783
Cl        2.93061769181499    2.73993436855433    3.67943173660403
Cl        3.80698170406091   -0.05090939196296    5.37054381027619
Cl        5.59954190874148    2.63344675383326    5.40723854188885
Cl        5.82783344068656    2.20752344432973    2.14418813850459
P         6.29981786702242   -0.50473381283075    3.64701204112591
O         7.96499105371750    0.27516058055250    5.29337703870268
O         3.66704351319661    0.16503114988933    2.41730944839555
C         9.04211365633110    2.36786797911725    4.95959918613865
C         8.56998932042658    1.35287714317256    5.98759125543710
C         7.31434017821276   -0.68836684061539    6.09141309165159
C         6.70236342799714   -1.62923441369339    5.06171238304923
C         7.77726587987438   -0.47447686038672    2.51023786973523
C         8.48524431427659   -1.78117189457947    2.38791134709032
C         9.43417791222745   -2.15560794458771    3.33543119656657
C        10.08591094314821   -3.37171503779472    3.24144132956635
C         9.80096120524088   -4.23467995084259    2.19598974592089
C         8.87283030013272   -3.86580200358225    1.23787128746398
C         8.22113510046159   -2.64812638826348    1.33252620771910
C         5.20814813449948   -1.65519053734513    2.66684813380121
C         4.43294493490099   -0.78483648181301    1.67868028267595
C         2.27190620145514   -0.15327605380309    2.51028569464264
C         1.52128106551250    0.39340514481941    1.30342383652813
H         9.44479624364586    3.24267487352835    5.46081639099726
H         8.19744177309180    2.66885200203094    4.34089640548661
H         9.81222691719676    1.93794917120081    4.32354365911580
H         9.41431459850251    0.97153796530886    6.58213800610980
H         7.84008264598835    1.81231174843588    6.66579162888186
H         6.52947402248384   -0.21135532395135    6.69770109048517
H         8.02701384584936   -1.18955151125643    6.76171515103783
H         5.78765606138452   -2.09340175609577    5.43008841673903
H         7.41099256140575   -2.39464431601126    4.73746640021415
H         7.39222468621780   -0.13681651169996    1.54389571165595
H         8.44012301134468    0.29745627053446    2.90061381749524
H         9.66446630602321   -1.47448957451826    4.14101328023041
H        10.82142769655840   -3.64734774166391    3.98289771634153
H        10.30846428088719   -5.18464479693119    2.12227741340467
H         8.65883987370508   -4.52586345025722    0.41014955469115
H         7.51964525129610   -2.35644144093737    0.56283340762961
H         5.79417665375359   -2.42563698658109    2.16029699098506
H         4.50136195330157   -2.13097168584372    3.35380086691260
H         5.12042121889038   -0.21239736259386    1.04103431064511
H         3.77478930154464   -1.38405983756371    1.03928092078812
H         1.90268698917102    0.32619903468529    3.42305903327519
H         2.14686121386194   -1.23884498565075    2.60970765990848
H         0.45702732993550    0.20854439221084    1.41351001848534
H         1.86478752731907   -0.06944408443860    0.38048141801161
H         1.68821922027678    1.46700592755145    1.24108372563802

