93
CSD_code = ZUNWAG | q = 0 | S = 0 | Stoichiometry = C33H50MoO7P2 | MND = 6
Mo        1.10242908367947    3.99487498485615    3.63337864665275
P         1.59756601869840    1.63704549743784    3.76839524582152
P        -0.53142651540128    3.88518002268885    1.85870271638679
O         3.57925494936281    0.60062635840679    0.41501590890941
O        -2.12776626777287    0.07923735149445    4.23904582511597
O         2.41375272828088    4.29659369960746    1.68553899730613
O        -2.97141017798397    4.01145605717557    3.25217281265295
O        -0.67109646149779    3.84005139046829    6.12993315184233
O         0.62419434452102    7.02465809855993    3.85889142265484
O         3.39309109444171    4.59982223571815    5.59407584411722
C         4.60550801286546    0.33264758783793   -1.71807131251720
C         3.35978968762598    0.76884957002137   -0.96573503296120
C         2.47362967749390    0.97544358537461    1.20114653222644
C         2.82891098483841    0.80788375269243    2.66902430209688
C         0.24241011526104    0.39297378263012    3.68480285432789
C        -0.98890271118728    0.88268538760182    4.44396604264266
C        -2.14339922184627   -1.12938937209419    4.96992881651942
C        -3.49897407949027   -1.78932998242404    4.77398521419872
C         2.35034648269243    1.24649636998168    5.42139397611531
C         2.60170691168692   -0.19585127076182    5.71407527641521
C         3.80442213194454   -0.79848323957084    5.35771749365322
C         4.02618337223371   -2.14065652094117    5.60860458284091
C         3.04985092068073   -2.90530641958244    6.22434707693276
C         1.85694414224223   -2.31344777124334    6.60292012528077
C         1.63777747086819   -0.97072475464162    6.35249426960658
C         4.00625898396196    6.06384469291772    2.35166709271434
C         3.77233179096372    4.64934554269010    1.83523787057252
C         1.71595904419622    5.05559899261909    0.72171878489037
C         0.45780246532493    4.29258490064051    0.33465348149069
C        -1.69248271673708    5.31238034529548    1.79138324443273
C        -2.49348946569523    5.32182702629553    3.08007246521994
C        -3.73176147568744    3.82969589769234    4.43310827129087
C        -4.45201146250399    2.49221095870671    4.36323319056304
C        -1.49541746039522    2.45541759631422    1.15690760777102
C        -2.30350274778199    2.77417137823947   -0.05679897799410
C        -3.59682384743146    3.27159015704927    0.08039781346674
C        -4.35474601816449    3.58695133327811   -1.03233399664945
C        -3.83552739454223    3.40457746868023   -2.30354456607967
C        -2.55901596661764    2.89114098103757   -2.45253195299209
C        -1.80070870051749    2.57710066111383   -1.33827615821568
C        -0.02793182093765    3.84994468796243    5.17613368623792
C         0.78933234316489    5.89639973297416    3.70859501833807
C         2.55560394550615    4.32718538300253    4.85678129772719
H         4.45703872503449    0.45580724023751   -2.78726381315581
H         4.81821131416944   -0.71060063835700   -1.50311477644753
H         5.45603181161955    0.93008379412620   -1.40202207819852
H         3.13206209375262    1.82719841036672   -1.18119074119985
H         2.49067793039495    0.16880707911094   -1.28331630763197
H         1.60128974794622    0.35512081070867    0.93459305021838
H         2.21627832612579    2.02976011846666    1.00569886848942
H         3.79578764606698    1.29271923822972    2.84060562924473
H         2.92059409164950   -0.25226099635906    2.92242671574777
H        -0.03293799997031    0.25152692303292    2.63636569945927
H         0.60877818694661   -0.55990769623127    4.08148190187435
H        -0.76935305510400    0.96046951641703    5.51875634228924
H        -1.25757306179210    1.87976484090118    4.07739180386741
H        -1.97418497462687   -0.91740075774028    6.03738268235642
H        -1.34313601720781   -1.80140869368042    4.62565092509862
H        -3.53989302463121   -2.72560415299327    5.32349780421086
H        -3.66419317723555   -1.98578557292682    3.71834769139466
H        -4.28610523519676   -1.12990862765271    5.12900211352526
H         3.28557400195243    1.81548763655350    5.44856587109375
H         1.66908690173779    1.68815600763490    6.15653548567980
H         4.57865289310502   -0.20614924393097    4.89158211884862
H         4.96633372950881   -2.59068923417023    5.32488463896975
H         3.22207893981997   -3.95350392643160    6.41834617904973
H         1.09532084335810   -2.89802847386392    7.09852317597044
H         0.71242896691851   -0.51096096967802    6.66905972302373
H         5.05705806259000    6.18775173600353    2.59790799364633
H         3.41655911699074    6.23161189485796    3.25191055116517
H         3.73698974993514    6.80938437839615    1.60641528690064
H         4.28104393898222    4.51837466254592    0.86474358234014
H         4.17676754124468    3.92303742510463    2.54703814995568
H         2.36020667052576    5.19822725663133   -0.16313415664891
H         1.45037852419418    6.04606665905922    1.12425227551929
H         0.75251137609308    3.35358036911627   -0.14252606517005
H        -0.13972986447428    4.87100689071623   -0.37574199289529
H        -1.10422017774330    6.22999409572207    1.70473570482420
H        -2.35347917106087    5.21736611604817    0.92503752950524
H        -1.84933594411119    5.60412079250313    3.92725008724077
H        -3.33299717536943    6.03512178108017    3.03043046425934
H        -4.46426805289241    4.64783000303272    4.51799998312578
H        -3.07193542020558    3.87134346448281    5.31032718306039
H        -5.03420328101322    2.34694895231575    5.26916321088187
H        -3.73853821601228    1.67910939275120    4.26468540449915
H        -5.12254214455323    2.47250133108443    3.50706995592658
H        -0.73982410533076    1.69440651862982    0.93256019278417
H        -2.13861077048085    2.09022355908668    1.95833204425356
H        -3.99935301471630    3.40071044547987    1.07384442151942
H        -5.35616884524816    3.97353838847347   -0.90923571564647
H        -4.42614452710607    3.65130810608819   -3.17336739235561
H        -2.15267723770125    2.73026744007501   -3.44080715032616
H        -0.81239882722307    2.15807157115285   -1.47053721376731

