35
CSD_code = ZUNYIQ | q = 0 | S = 0 | Stoichiometry = C10H10FeN4O10 | MND = 6
Fe       -0.00029893056211   -0.00011559282981   -0.00020556973181
N        -0.66360125150215   -4.86236974034881    2.47810437064154
C        -1.58991467505680   -4.89986736703572    1.45570950604593
O        -2.39829101266236   -5.78351693925047    1.33464220677511
N        -1.49622600569424   -3.83322856206913    0.58806340908686
C        -0.61439662991113   -2.76811367853801    0.65691990469534
O        -0.68679058182026   -1.90443486940392   -0.22390314620002
C         0.31936050501722   -2.82323056689812    1.75133609937148
C         1.45109659903937   -1.78881281135306    1.93911370994685
O         1.40845785182412   -0.74717526376882    1.22754791521137
O         2.32371263423283   -2.07972807363450    2.73939537910442
C         0.25616304825178   -3.87040642833024    2.60658351219655
O         1.57655153975347   -0.24971786792410   -1.57162887629701
H        -0.69480664157494   -5.63064656288282    3.13522416588044
H        -2.16708514151653   -3.81582603656689   -0.17354642736501
H         0.96523889156391   -3.93829224601540    3.41945749149594
H         1.35877187708056   -1.01576425851632   -2.11321474234086
H         2.30724836220559   -0.50018636788323   -0.99026238658964
O         0.68651451212443    1.90436882580904    0.22317679135000
C         0.61388712290984    2.76798467689237   -0.65773613980646
N         1.49572579003360    3.83308944787374   -0.58915583029831
C         1.58920248007127    4.89967517688598   -1.45691833343843
N         0.66267000801106    4.86208259751492   -2.47908359749690
C        -0.25713607092868    3.87011146057588   -2.60723025702087
C        -0.32013802376353    2.82302419350773   -1.75186728543231
C        -1.45202182508108    1.78857406866608   -1.93926203209713
O        -1.40892759076423    0.74686288269190   -1.22795567876984
O        -1.57470661227400    0.24973702219988    1.57296850632476
H        -1.35132389261463    1.01168210330613    2.11806820025577
H        -2.30552499008499    0.50707216079258    0.99458312737490
O        -2.32500070085119    2.07977822701224   -2.73903387229171
H        -0.96643881150884    3.93790772299737   -3.41991232399430
H         0.69369685108417    5.63030955259900   -3.13627021208702
O         2.39761518969854    5.78332192513508   -1.33605076980427
H         2.16671612527094    3.81585118878866    0.17234318530559

