55
CSD_code = ZUNYOY | q = 0 | S = 0 | Stoichiometry = C26H22N2O4Pd | MND = 6
Pd        6.69436745553585    7.12041272460135    3.92162132285891
N         6.20225846028817    5.68917045571018    2.61918767954024
C         6.41439058126909    4.39268792845883    2.80633863566820
H         6.75286323873323    4.09606332560578    3.79069037197825
C         6.23760849157324    3.46068223580994    1.80123512844006
H         6.42649830654328    2.41702999697642    1.99240783302704
C         5.83631406752279    3.90104020376313    0.54659692963065
H         5.71150237885073    3.20337561785746   -0.26782600020502
C         5.60057088074766    5.24737828865684    0.35783991945663
H         5.28973730869949    5.61918562283308   -0.60495737210358
C         5.78285851215280    6.13529490121658    1.42038898585469
C         5.55221699456782    7.57303569648919    1.36153842990926
C         5.04590077104696    8.26273466906654    0.25736152994735
H         4.79803036917433    7.73377701648361   -0.65071881323657
C         4.86427058281802    9.63001609095191    0.32409855072784
H         4.47532267905183   10.16139276335617   -0.53188492833363
C         5.18562452061361   10.32407237171413    1.48176718805511
H         5.04446314759468   11.39421214862210    1.52321938562753
C         5.69355677050516    9.65214085528243    2.58510390147963
H         5.95287790623678   10.19083957796573    3.48733174211126
C         5.87101222468374    8.28296912907673    2.52887280456619
N         7.38987018513859    5.67668487766400    5.59882134026800
C         8.62455561140481    5.24835812623795    5.82206901595554
H         9.24132141254295    5.12089960261864    4.94157919845820
C         9.09940033392158    4.97584328129316    7.09542992716955
H        10.11084770302533    4.63015071590595    7.23496067507883
C         8.25722015918353    5.18788538704503    8.17489278585575
H         8.60194536369774    5.02103656229680    9.18539729857279
C         6.96316376814486    5.61800943246217    7.94288069003416
H         6.29240829187006    5.80125695765640    8.76737011615027
C         6.54811909645513    5.84589134676959    6.63144640413320
C         5.19085308851389    6.26330970369395    6.25647957184469
C         4.09445481132792    6.08623349831877    7.10074765059522
H         4.22781752403369    5.63727452817926    8.07392839454448
C         2.83097479448287    6.46556132981878    6.69212783384859
H         1.98653911187587    6.32668640525564    7.35098599345004
C         2.65116242145856    7.02089907788051    5.43682316595560
H         1.66441188263604    7.32042951177182    5.11457597757757
C         3.73550819913670    7.19708072057949    4.58758179013847
H         3.56585959624203    7.63618120198987    3.61134890677250
C         5.01160128308628    6.81893962722118    4.98050678669472
O         8.45125504568995    7.75477700653477    2.70299454427926
C         9.22250868313387    6.76151927885187    2.58225838223862
O         8.89486983381751    5.60464183406303    2.87631973389372
C        10.61216269382274    7.05029970211363    2.02573499851037
H        11.05359735928808    6.13988035322262    1.62971998851717
H        11.22478680887416    7.42372083179079    2.84364276156327
H        10.55242198800084    7.81649010911848    1.25763531466736
O         7.00457465012167    8.71752866009770    5.16324311687884
C         8.19525524105211    8.76406073874634    5.62580779732013
O         9.01794720580861    7.86835737203524    5.49870355893025
C         8.52664362816635   10.04492449558287    6.38579966587004
H         9.29254151767940    9.84157662902892    7.12856299758885
H         7.63095008491143   10.44407508157049    6.85340860705719
H         8.90970497324286   10.77272439208554    5.67350178458329

