41
CSD_code = ZUPDUL | q = 0 | S = 0 | Stoichiometry = C18H10F6N6Pt | MND = 4
C        -1.65916195029379    2.26166084771897    0.53963124401983
C        -2.76731241284380    3.03084366686425    0.88580441776400
H        -2.68680125483916    4.10561037171616    0.88026887364011
C        -3.94572709862707    2.39612126662687    1.22895643423306
H        -4.81719336415468    2.97176331358273    1.50073657733080
C        -3.98820772698361    1.00818640199815    1.21814380000433
H        -4.88788342945659    0.47632476188693    1.47990925839818
C        -2.85220499895109    0.30039874412651    0.86451552394708
H        -2.84497505568044   -0.78452811194716    0.84409226621177
C        -0.37444543279592    2.79272625498443    0.16450797547659
C         0.18662190033133    4.06037049672768    0.01761177936339
H        -0.26085151552352    5.02066269976581    0.16369274517154
C         1.49518009366675    3.78561288021798   -0.37856542241661
C         2.58451928826538    4.75017745568122   -0.67413253814077
F         3.28218794506357    4.43435353124944   -1.77750906826514
F         3.48973839093799    4.83927638787278    0.32242672368873
F         2.11537689114220    5.99586741464560   -0.86037667616457
N        -1.71522076678322    0.90839970585298    0.53290733631515
N         0.58086762604613    1.87419491690725   -0.13476973018803
N         1.70206271456460    2.46400645537391   -0.45890571649933
Pt       -0.00002053713330    0.00000040496210   -0.00007683334437
C         1.65918919812992   -2.26166317482558   -0.53954194871083
C         2.76735737752164   -3.03084808641775   -0.88565196928443
H         2.68683337503770   -4.10561385829560   -0.88015446369189
C         3.94581183718460   -2.39612952301973   -1.22867346639754
H         4.81730288520545   -2.97177457116391   -1.50036823599640
C         3.98829598449052   -1.00819464001864   -1.21785487103881
H         4.88799600022188   -0.47633564081433   -1.47954307355900
C         2.85226616178994   -0.30040415356436   -0.86432066321565
H         2.84502502556103    0.78452429575315   -0.84393904890396
C         0.37444701789761   -2.79272713282044   -0.16450289464894
C        -0.18666314272389   -4.06036883427830   -0.01774618477710
H         0.26079144765319   -5.02066040183189   -0.16388687911212
C        -1.49523575839413   -3.78560936714395    0.37838083284623
C        -2.58462412582945   -4.75016676412194    0.67379060194455
F        -3.28236781199640   -4.43440348479989    1.77713697459951
F        -3.48977012364770   -4.83916831399292   -0.32284392294869
F        -2.11553049184605   -5.99588337892651    0.85997884977962
N         1.71525859861629   -0.90840275516686   -0.53278670856080
N        -0.58085239364718   -1.87419562314974    0.13481636942435
N        -1.70208036717657   -2.46400445821561    0.45884173170592

