71
CSD_code = ZUQBES | q = 0 | S = 0 | Stoichiometry = C20H38Cl2O8P2Ru | MND = 6
Ru       -1.85722478973171    0.33667430631534    4.55967652627304
Cl       -3.26523138848963    2.24052948528487    4.49481296203631
Cl       -0.45724589612319   -1.55792125957172    4.31329181720576
P        -3.47933197596969   -0.57774026549489    5.87725391686182
P        -0.17474288725295    1.17089803759934    5.85442405599165
O        -3.13300648043213   -0.45220465940625    3.03397384906168
O        -0.65269494403003    1.22147701095682    3.02810587922061
O        -5.52373062491005    0.01717103246792    9.11655898023992
O         2.01534809488283    0.38344788992382    8.95423950922372
O        -5.09446464464503   -1.31328419110676    2.43939856458566
O         1.27846700218177    2.12695044342037    2.40091113263888
O        -6.39661172574098    0.13268917252266    7.05831403941364
O         2.79270706449826    0.39405332203547    6.85495718649128
C        -4.27929076615563   -0.74368760249441    3.32052159229134
C         0.50568669949935    1.49736373904560    3.27947727880521
C        -5.38409622843902    0.17623558816551    7.93219905167619
C         1.82130133553345    0.29661237864469    7.77009211758404
C        -4.89567075227257   -0.52141611958493    4.66617897782112
C         1.18380258891843    1.18956223846185    4.57768817118158
C        -4.07903218135942    0.49058552308404    7.26269551883941
C         0.48643283586390    0.02138790152528    7.14343790054199
C        -4.54860463579431   -1.55066524314635    1.14456905136806
C         0.67153693302997    2.45018277497463    1.15263102775896
C        -7.68375512535835   -0.11324994549986    7.60825224360164
C         4.10417813083671    0.60726514909751    7.35920954103128
C        -3.50346215617627   -2.35533601431177    6.47801565494659
C        -0.11956507656607    2.90920145392365    6.55917948625541
C        -4.75345729459112   -2.71981151374551    7.27234896956629
C        -3.38774943838431   -3.24333791618971    5.23763315665749
C        -2.25467713451314   -2.51843820487348    7.34220646798754
C        -1.32661915754334    3.01884568689592    7.48864944852048
C        -0.29111886407417    3.87004074232010    5.38109521264005
C         1.16660686790300    3.22662782724462    7.31500575796555
H        -5.26703495246438    0.50963336871168    4.70510506735866
H        -5.72018106311971   -1.20969699548156    4.85065361661616
H         1.55193648712750    0.15748257253952    4.53440613069764
H         2.01882141637446    1.86386298172821    4.76649776917783
H        -4.15190571077759    1.47523853963141    6.78256921866911
H        -3.28948837915477    0.52500094266390    8.01706970505853
H         0.53576874347568   -0.93220091835377    6.60161793113881
H        -0.26763635014716   -0.05974930724552    7.92983835020819
H        -3.65320250717668   -2.17123686722252    1.22083991768412
H        -5.32365977848880   -2.06169576172383    0.57985990561098
H        -4.28612316405265   -0.60492637168563    0.66640818901355
H        -0.21700251134299    3.06473728863751    1.31377361488126
H         1.42031332018200    2.99773044614433    0.58615088812208
H         0.38274601786349    1.53833766932643    0.62584315236183
H        -7.93129946553128    0.64956436073599    8.34844768221552
H        -8.38300241777916   -0.07868776227506    6.77688450277214
H        -7.70929827066360   -1.09163212403877    8.09306921687031
H         4.38610373565146   -0.20184099737397    8.03513878981805
H         4.76378517261455    0.62959988978156    6.49564731899945
H         4.15232855009990    1.55166679318257    7.90574649241165
H        -4.74884437833181   -3.79201848250380    7.46608192370633
H        -4.77319674340286   -2.20972993801961    8.23140603004465
H        -5.66416939111465   -2.48450606371296    6.72480320609679
H        -4.29867685818922   -3.22186635835621    4.64040074487806
H        -2.54576108910448   -2.92288559422576    4.62394600839729
H        -3.20413134255388   -4.27369489563602    5.53768974879492
H        -1.37164277687247   -2.31928756226740    6.73814662326701
H        -2.27670330079455   -1.83217805315077    8.18763611514179
H        -2.19040621885858   -3.53453777551475    7.72659332916279
H        -2.23706269321321    2.85489112417166    6.91549364540841
H        -1.26629217792732    2.28343031814351    8.28969805932873
H        -1.37144682337710    4.01012733895629    7.93550261203351
H        -0.45923346979904    4.88024304126988    5.75069336691114
H         0.59130678237496    3.88573597931232    4.74230206928562
H        -1.16104774784520    3.58598387121757    4.78881038555473
H         1.23019628337509    2.65960855038250    8.23955813184419
H         2.05050474537923    3.02601280927735    6.71245827504610
H         1.17265494296819    4.28517517449273    7.57310721913246

