67
CSD_code = ZUQFEW | q = 1 | S = 0 | Stoichiometry = C30H32AuP2S2(1+) | MND = 2
Au       -1.70473918257750   -3.37127394657022   -0.27952450989907
S         0.62661524581364   -5.44506786372886    0.44610504833756
S        -2.62606104893229   -6.36788208414397    0.04976421338653
P        -1.00607372428247   -2.72246407389448    1.80300227673467
P        -2.26665961127920   -3.94447993709006   -2.42368956873020
C        -0.29371460083763   -4.13589322608303    2.74102268982353
C         0.95528197680029   -4.68120249072486    2.06468071114834
C        -0.09676157682818   -7.04640924340246    0.97955820501190
C        -1.19047118252356   -7.51496783947505    0.04414431139085
C        -3.15057890041619   -6.48740462704438   -1.68795434948965
C        -2.21955406507393   -5.77008640543280   -2.65380708795273
C        -2.24248975882451   -2.01443443530853    2.91465778189470
C        -2.92818106274810   -2.76693597949004    3.86292104310898
C        -3.90892294750713   -2.16702312709966    4.63365005921936
C        -4.21866358112490   -0.82897646259839    4.45453097482385
C        -3.55271654118641   -0.08313847768533    3.49367479882189
C        -2.57331819614326   -0.67351206236317    2.71908057303112
C         0.35366263719968   -1.52942774074464    1.81381393190179
C         0.75862361711744   -0.91770256137840    2.99805372395631
C         1.82650080268798   -0.04090700341635    2.98218766453846
C         2.49167478772656    0.22535525531603    1.79430611632336
C         2.08900195223002   -0.38190741251589    0.61595131498746
C         1.01873171935119   -1.25860011650234    0.62258337564427
C        -1.05202837914490   -3.39609019784462   -3.64748700370228
C         0.27791660495069   -3.71778941660758   -3.37554087676972
C         1.27436746453065   -3.31530396118754   -4.24278345934793
C         0.95173312064136   -2.57597640994135   -5.37135457909484
C        -0.36499869090037   -2.22931632443442   -5.62433984948067
C        -1.37154997321967   -2.63104834284981   -4.76260401919480
C        -3.90609722897870   -3.47724493202319   -3.02249836807944
C        -4.69128403750888   -2.66805074889124   -2.20677189860838
C        -5.95821655507373   -2.29356585465056   -2.61673594979378
C        -6.44347208529845   -2.72560696331495   -3.84025227567193
C        -5.66367022973295   -3.53234371624752   -4.65578521362346
C        -4.39711873826163   -3.91136781346375   -4.25294903217376
H        -0.04752995262429   -3.79753358048735    3.75520462807827
H        -1.06727673459897   -4.90858943964483    2.80443828318308
H         1.44190204382633   -5.43627757601393    2.68314272028474
H         1.66884804735527   -3.88110534859146    1.85976831532436
H         0.71167888347437   -7.77878960126518    0.99734303887146
H        -0.48813518546977   -6.91000041834372    1.98577532815204
H        -1.55259432234475   -8.49314994308845    0.36353397936353
H        -0.82021221526748   -7.57923618105490   -0.97704547043812
H        -3.22900812368960   -7.54813948749384   -1.92904850998749
H        -4.14886754519024   -6.04611182481595   -1.70940668125537
H        -2.50143960638172   -6.00687965230449   -3.68632685849164
H        -1.17935194047785   -6.08052156136663   -2.50983642432114
H        -2.70153798604405   -3.81327414075905    4.00479095471422
H        -4.43367881383607   -2.74844236984853    5.37645151951756
H        -4.98249343369371   -0.36725568563696    5.06089277284319
H        -3.79843601208186    0.95789642447348    3.34913537632023
H        -2.04775456890316   -0.10063825724858    1.96551736035968
H         0.22979449234541   -1.12254548235587    3.91923485580525
H         2.14175966521010    0.43747861902988    3.89688804023340
H         3.32463395737918    0.91129492186502    1.78820749906188
H         2.60608629272013   -0.17107426346638   -0.30770290846925
H         0.69007134330285   -1.73916749857059   -0.29164730655678
H         0.52217439846147   -4.27611695009163   -2.47890983566587
H         2.30259412171669   -3.57218943299819   -4.03789340916970
H         1.73064881839785   -2.26179684058306   -6.04884224241093
H        -0.61144968453339   -1.64092248764887   -6.49499620891603
H        -2.39706288242999   -2.34895954742791   -4.95410434402047
H        -4.29864139278502   -2.34060236387186   -1.25142323509543
H        -6.56618720242959   -1.66644191866565   -1.98285336781820
H        -7.43156374634228   -2.43409777808000   -4.16116840969543
H        -6.04473866839246   -3.86583072000703   -5.60915575917960
H        -3.78930007729915   -4.53483307078497   -4.89447447308445

