69
CSD_code = ZUQFAS | q = 1 | S = 0 | Stoichiometry = C30H32Cl2P2RhS2(1+) | MND = 6
Rh        3.14061840697344   -4.25343064225899   -4.67215059004026
Cl        3.25881692690133   -5.87000004052494   -6.29777364907489
S         3.12295655913373   -2.55103286246800   -6.33336542170760
P         0.86880636199519   -4.40028529549189   -5.03774176507050
C        -0.18645367297456   -3.40935032996550   -3.93598539734582
C        -1.26686369065963   -2.65233446483409   -4.37703799719277
C        -2.02772401818392   -1.94128899030881   -3.46501468363824
C        -1.72406804573235   -1.98468768334621   -2.11399861025272
C        -0.65508708147660   -2.74588963700555   -1.66835590200405
C         0.11349318374547   -3.45297307161168   -2.57440212581200
C         0.06731012168567   -6.01846545004033   -5.08291040653205
C        -0.45999091823037   -6.53342851959957   -3.89986296554472
C        -1.02190548768240   -7.79595620324947   -3.88736326308147
C        -1.05664238437041   -8.55317678837879   -5.04725617964018
C        -0.52532222428853   -8.04590194408121   -6.22185643586712
C         0.04252519400790   -6.78529507059587   -6.24550996652349
C         0.65077211100938   -3.67713884383407   -6.72428096404914
C         1.34938487375308   -2.33129501782072   -6.76781439280655
C         3.45692027094000   -1.03877553182480   -5.35943066262934
H        -1.53027486224839   -2.61905894062869   -5.42379257196060
H        -2.86583454992808   -1.35612324550877   -3.81207305159774
H        -2.32439231450739   -1.43006757401354   -1.40965562528138
H        -0.42219659058309   -2.79048910940944   -0.61559093381330
H         0.94830634678429   -4.05296848507865   -2.23391119408631
H        -0.42665954914780   -5.94816553453014   -2.99233511439644
H        -1.42780613986989   -8.19167185235008   -2.96888237703813
H        -1.49123446505696   -9.54086600162402   -5.03440220117046
H        -0.54392303810975   -8.63780063081254   -7.12429279203739
H         0.47586237456806   -6.41554432924057   -7.16167580288332
H         1.13262285756358   -4.35871915871021   -7.43109021104671
H        -0.40603415943512   -3.59150137711132   -6.98670300290588
H         0.90787757418620   -1.62760996580725   -6.06205729450125
H         1.33809099770445   -1.90305573464068   -7.77068685218958
H         4.54628629038559   -0.99507842801622   -5.30233160710757
H         3.10624886214920   -0.19080597199611   -5.94825473697878
Cl        3.02224299741270   -5.87025171952111   -3.04676287654336
S         3.15881994721942   -2.55167475040227   -3.01077111994181
C         4.93250863736266   -2.33186338931609   -2.57664977499456
C         5.63155795259985   -3.67743426579113   -2.62110826281685
P         5.41211357050360   -4.40067654947439   -4.30742372031699
C         6.46627625402739   -3.40999868133971   -5.41039995913200
C         7.54659603859920   -2.65214286165778   -4.97059146496240
C         8.30614778463645   -1.94083980587042   -5.88352752146511
C         8.00122286010025   -1.98477881931130   -7.23423627577340
C         6.93236309841221   -2.74686325116003   -7.67866536447129
C         6.16515998981422   -3.45427380147629   -6.77172049103514
H         5.33045765019637   -4.05492593318361   -7.11128203405702
H         6.69844707533533   -2.79186296436623   -8.73119044606248
H         8.60050999192981   -1.42997105971981   -7.93930334067032
H         9.14426148750870   -1.35513568653570   -5.53741513587189
H         7.81081854742181   -2.61826935730339   -3.92405558898738
C         6.21348906076123   -6.01892603027758   -4.26277426143472
C         6.73959886399894   -6.53418363492444   -5.44624772888586
C         7.30120643897667   -7.79685895945939   -5.45908129930330
C         7.33692904581074   -8.55390467339231   -4.29908906186987
C         6.80696914611226   -8.04627966349629   -3.12404584529583
C         6.23933954020845   -6.78558640198685   -3.10007463320596
H         5.80685413328348   -6.41561350405711   -2.18357187400387
H         6.82634814638939   -8.63802378904787   -2.22150303972554
H         7.77140577420175   -9.54163898900275   -4.31222964222618
H         7.70604444790622   -8.19284238751175   -6.37791676576357
H         6.70544964434978   -5.94918441539969   -6.35388557561468
H         5.15078392411244   -4.35927259460842   -1.91383579915301
H         6.68861060830925   -3.59132975498923   -2.35982088374013
H         5.37342732387268   -1.62764474543922   -3.28221405573147
H         4.94403342893524   -1.90416440447329   -1.57354194863167
C         2.82399708859408   -1.03905538284953   -3.98390562537550
H         1.73460707168999   -0.99589547314863   -4.04100995189382
H         3.17431630844239   -0.19119957273705   -3.39470188323678

