72
CSD_code = ZUQHEA | q = 0 | S = 0 | Stoichiometry = C31H36FN2PPd | MND = 4
Pd       16.19934529943890    4.29549866206442    5.11606709495345
P        16.84904836959334    5.12588700269515    7.08075060159276
F        19.65234366915392    6.37865272139032    0.52302227770875
N        14.83479691067799    3.31203384427969    6.29327288370376
N        15.16984107534781    3.05571062113423    3.57514876730616
C        14.77863757507631    3.51210918952393    7.63616704948813
C        13.75117286794029    2.82650958224635    8.37952289827369
H        13.72629264491545    2.96360800726059    9.45075910140767
C        12.84298031989508    2.05006021135718    7.75014578207405
H        12.06350082513556    1.54402601827019    8.30302490354303
C        12.88584705189557    1.88614520532161    6.33079726771045
C        11.96248676373701    1.14640364793904    5.59321146134919
H        11.15755258171692    0.64646925162283    6.11312029772980
C        12.06039532448589    1.06240714976612    4.22064215550828
H        11.33068651803585    0.50195283785894    3.65670414239312
C        13.10387453293542    1.69878638737280    3.54839866269865
H        13.16685663158541    1.63205625977665    2.47079976107192
C        14.04727320128369    2.41573424287824    4.24758992037834
C        14.74867248955759    4.11693071879766    2.72635981712681
C        13.92473123510649    5.10085037100156    3.29110051146294
H        13.61102155478627    5.00942068104861    4.33139920446416
C        13.50503881672677    6.17771812974099    2.53758900188952
H        12.87330912454437    6.92996643187145    2.98731193446226
C        13.89705024435471    6.30056880617047    1.21228965840304
H        13.57382988994796    7.14724682756379    0.62633916758977
C        14.70883943871220    5.33343546022051    0.65179285048164
H        15.02254522045272    5.42025977045882   -0.37786734001559
C        15.12812065679313    4.24106052581378    1.39409864863706
H        15.76440923298691    3.50668545629720    0.92620772683338
C        16.06525095802441    2.05443931612612    3.00261520094694
H        15.58075730070131    1.46414734847211    2.21474583225331
H        16.37191613103807    1.37383043435956    3.80235151117540
H        16.95207557956342    2.54002584893052    2.59108472077139
C        13.94449641851816    2.54720456121749    5.65298765047048
C        15.69937610718346    4.36630670792036    8.19951623827335
H        15.71265301268778    4.56245803260467    9.26065165665608
C        16.58446519555225    6.98305124280255    7.24818974471039
C        17.61802294034158    7.77119599144287    6.45011430779430
H        17.26396415870454    8.78846489561090    6.28704580986148
H        17.78559972650895    7.30276606709823    5.48120173718307
H        18.56420454296503    7.82919654831051    6.98119697119112
C        15.20274826502037    7.14811475510715    6.60411231730940
H        14.44675012834131    6.62526692541167    7.19177851817053
H        15.21399444260826    6.72166778714359    5.59006126663475
H        14.92677625570185    8.19965580478538    6.54120381660678
C        16.54812951309076    7.45176330113387    8.69881915234125
H        17.52084998167929    7.34327354412663    9.17225827358980
H        15.81685124663472    6.88635777812103    9.27125519732457
H        16.26970232173012    8.50443867249345    8.73714013334627
C        18.55048447484589    4.47475306865324    7.57229124721229
C        18.43587326127657    2.99545676699052    7.18153413845955
H        18.11381750973374    2.90821611387396    6.12973232599961
H        17.69772762320174    2.49439802656560    7.80889870433550
H        19.39245935169249    2.48859999545715    7.29999514370459
C        19.66307293527842    5.13255535210878    6.76229313978992
H        20.57033302067046    4.53233179743823    6.82191173383371
H        19.89444368366136    6.12342632160567    7.14275063497333
H        19.37018241191208    5.21831729024964    5.71678101689483
C        17.47124462759192    5.14010232366369    3.82390342273264
C        17.13420340957012    6.30077361768204    3.12335474608554
H        16.27893318486455    6.89608861480506    3.43040502402121
C        17.85652877935667    6.72501061355652    2.01982806033355
H        17.58444678397657    7.61898710122079    1.47967189438913
C        18.94097626085302    5.97602115062613    1.60812073126249
C        19.31915630816414    4.82517400566516    2.27006334268373
H        20.17323577419799    4.26171932056830    1.92473628896264
C        18.58010750886898    4.41886093577447    3.37102583133584
H        18.89114545774983    3.51103827888490    3.88552491434378
C        18.82215692124670    4.60095854650284    9.06754706568312
H        19.73994220026201    4.07143750123669    9.32109989833288
H        18.00929200976075    4.16939843944921    9.64684522249191
H        18.94345220773538    5.64175523242950    9.35818920532000

