50
CSD_code = ZUQKIF | q = 1 | S = 0 | Stoichiometry = C25H17Cl2N5Re(1+) | MND = 7
Re        0.84244258557760    3.19321238733461    1.90897274355772
Cl       -0.44258650506101    5.00838524822830    0.96465737224922
Cl        2.12163292767831    1.37623384422668    2.85607929012466
N         1.56870258456610    4.84259869451622    3.11124970107214
N        -0.04962527406443    3.06141948862849    3.79383287944825
N        -0.79210966066615    1.93359841834750    1.70577381015003
N         0.78899042558899    2.59995939399557   -0.09338486178786
N         2.78239768215601    3.59852919953972    1.03766314325293
C         2.12678981572249    5.94090950074476    2.59748968713446
C         2.58124358328408    6.98592697682337    3.37726536641202
C         2.46597956827067    6.89855149619664    4.75923468509341
C         1.82304627280869    5.80012445461537    5.29483273497362
C         1.35574151782442    4.80013433584000    4.44384137273259
C         0.48467128576797    3.71034157144067    4.84901773790418
C         0.12598990196004    3.40290746340805    6.15687356521195
C        -0.82145448255900    2.41899730816091    6.38585631433179
C        -1.41052490557493    1.79257815497303    5.30142388746921
C        -1.00525996111117    2.13673933926205    4.01565151653765
C        -1.50750809301081    1.55339360269132    2.78575426557588
C        -2.59983851839510    0.69932012303771    2.68196180882376
C        -2.98906302245315    0.24546451990501    1.43298385275526
C        -2.26597896328254    0.64611694785384    0.32218925083504
C        -1.16434703238100    1.47773256145579    0.49072681685253
C        -0.29349858536955    1.95159954086590   -0.56848038824684
C        -0.52173596021505    1.80422342822343   -1.93303371307547
C         0.38834279438455    2.33335402954266   -2.83147684852340
C         1.52377230746766    2.95859627232673   -2.34373712093342
C         1.70259378464187    3.06796577475212   -0.96904775650624
C         2.89430062032947    3.57046929290404   -0.30772161397922
C         4.09476675885310    3.86577968433818   -0.95135950755327
C         5.22008093922869    4.13043568107831   -0.19616002798178
C         5.12083313343172    4.04471024295494    1.18723377280878
C         3.89095599479483    3.78360700819858    1.75796869577987
H         2.18867593808792    6.00158401660207    1.52052882516581
H         3.01763015880451    7.85174904534598    2.90747459051135
H         2.83751016947855    7.68466666542856    5.39693209615819
H         1.65984850275796    5.72251267542946    6.35667169960301
H         0.58460748042243    3.92271354326661    6.98099554620368
H        -1.10347394676590    2.15371843108742    7.39187169091728
H        -2.16248447433819    1.03556156462585    5.44635584811579
H        -3.14179090298370    0.40674342012479    3.56528282955750
H        -3.83982211658232   -0.40785963260866    1.32732009505361
H        -2.54288310929124    0.31035907582563   -0.66278092967103
H        -1.40561598084834    1.29720209550165   -2.28120292116780
H         0.22217282379039    2.25002275323532   -3.89327276438099
H         2.26001422866704    3.35981709475797   -3.01948746250545
H         4.14314740701485    3.86278911428405   -2.02735687362137
H         6.15992642373295    4.36311722897020   -0.67070207839656
H         5.98399792679225    4.17900471246914    1.81786432528170
H         3.79919595106709    3.69268220924369    2.83067305067566

