77
CSD_code = ZUQLEE | q = 0 | S = 0 | Stoichiometry = C22H46N4NiSi4 | MND = 4
Ni        9.08587852226529    1.50254713937271    3.25451618422518
Si       10.44040859559398    3.86682197774825    1.37657175817997
Si       11.25667034027443    3.41777723477897    4.26040555297003
Si        7.64788688956146   -1.05179122362554    2.35954260100644
Si        6.60798356526173    0.11987911313079    4.95462184539734
N        10.38431394909489    2.96860496558764    2.84366575134389
N         7.73627201981930    0.08066513121280    3.65559436209887
N        10.51635753627095    0.25275366645188    3.47666980923978
N         7.71276049685681    2.70282724554219    3.04214206739086
C         9.84325859672196    2.89288780969801   -0.15918114505069
H        10.40830531976322    1.98219189870893   -0.32684408287790
H         9.96046363049721    3.51092264589555   -1.04438933069179
H         8.79363595252329    2.62969441256557   -0.08868267551540
C         9.36388828703437    5.45773144409908    1.40333158126551
H         8.30371367679575    5.23018156836493    1.33718499246900
H         9.60809949431149    6.10795542903973    0.56890980784585
H         9.52107785436262    6.02283543971892    2.31536009676045
C        12.22766032162261    4.41451457145249    0.97399608958726
H        12.61455064984041    5.07464747867073    1.74146732040737
H        12.26675634595264    4.94812721981926    0.02984980199923
H        12.90121045357374    3.56704205729854    0.90099382025513
C        11.25154912638735    5.29295933940489    4.64397139975629
H        11.73774359322394    5.84629979712608    3.84896337901486
H        11.78664199608776    5.50411956072011    5.56448805673479
H        10.24641404089613    5.68953371221055    4.74853537690392
C        10.42418272814008    2.52843948305372    5.74457966445913
H        10.06339219512009    3.22378823238547    6.49623758711028
H        11.11441509338620    1.85195150714670    6.23832906962898
H         9.56982752865186    1.93671888882589    5.38986672528588
C        13.09849577769698    2.88379183303148    4.24024338030129
H        13.20843623385672    1.80424524023139    4.20260124893547
H        13.61195803485345    3.23614021093620    5.12948234303886
H        13.61311565956380    3.29618443139047    3.38032532112851
C         8.38133474159669   -2.77273701725163    2.78162557591105
H         9.44189279996724   -2.71838272698416    3.00782670602838
H         8.25685353238461   -3.45964837779835    1.95025537688861
H         7.88431190364168   -3.20632746652733    3.64147000587956
C         8.68061535894299   -0.33408627065600    0.90867930568279
H         8.09253786963131   -0.20220136839925    0.00570423928341
H         9.51386340236186   -0.98237237110863    0.65719673896009
H         9.09020917671614    0.64397563791810    1.19420067536769
C         5.88190361071311   -1.37522272734729    1.69592013214119
H         5.25493134090305   -1.80065243118925    2.47085761145991
H         5.89936374109941   -2.07613986184975    0.86722631068188
H         5.39886571526872   -0.46693391828053    1.34911169828767
C         7.22438292001846    1.07435578290944    6.49498381181898
H         8.15187562127227    0.67754079335147    6.89388013504168
H         6.48011715791971    1.00436308649317    7.28270171844269
H         7.37150360131233    2.12819689498816    6.28570248774054
C         6.20702851830098   -1.64521986934302    5.57091980669059
H         5.74496868444829   -2.23552712001469    4.78826183693463
H         5.52048932601323   -1.61619886722478    6.41088452276922
H         7.09971652612541   -2.17074146828216    5.89374899217963
C         4.93402154363310    0.94487734877683    4.49805100654680
H         5.02016173599808    2.02598373215129    4.43458714468167
H         4.17443723755766    0.72388221132251    5.24163566758063
H         4.56861411680245    0.58889391155415    3.54115863332749
C        11.52919480638766    0.21120785826920    2.61285379245028
H        11.51357235215049    0.94059857934591    1.81537042066700
C        12.57784055954235   -0.68586226064909    2.72909204747511
H        13.37007563875313   -0.68481139325452    1.99707624520583
C        12.59510823595526   -1.56783828075363    3.79706222625623
H        13.40192726376033   -2.27478281244940    3.92131577052527
C        11.54673059096346   -1.51613345030332    4.70095135573902
H        11.51234439867640   -2.18082945104390    5.54976868974093
C        10.52679319030396   -0.60147208523567    4.49840596093347
H         9.67440074755810   -0.57049200925944    5.16226334097716
C         6.82987835103574    2.56485679029591    2.05441547267957
H         6.94609805309680    1.70405179174838    1.41220838326865
C         5.78866601248089    3.45373192282889    1.85119520413476
H         5.10559561079496    3.30307355230042    1.03009237142720
C         5.63541571758611    4.52387688581619    2.71744816317549
H         4.82927765793646    5.23078359073417    2.59134516186506
C         6.54824701724493    4.65891868484004    3.75071343606839
H         6.47341230427032    5.47375268870100    4.45354637241296
C         7.57311907531635    3.73654323105580    3.87045163866896
H         8.31607772769395    3.84395916781045    4.64718404540125

