80
CSD_code = ZUQMON | q = 1 | S = 0 | Stoichiometry = C36H35N4O2P2Ru(1+) | MND = 6
Ru        3.34706009014438   18.34810779851314    3.80456195836579
P         4.08667966189505   16.90556070336963    5.54219686595190
P         2.67493823373682   19.62416435922037    1.94594395856849
O         3.90392377565447   17.20748598604550    1.43648083812304
O         2.88780001240906   15.86103864096608    2.76822703792662
N         3.39536108281050   16.95678397655008    2.53957352523757
N         1.40547374940851   18.18186301034345    4.41665235434284
N         3.25312141594579   19.86722721343827    5.01208521701751
N         5.25623817465919   19.06998335747198    3.61210561186651
C         1.43509663293863   18.85998546834534    0.84761211837410
C         1.83860386301553   21.20395326250882    2.36929926731455
C         3.94055313333856   20.20845770762437    0.76917440368174
C         1.04469124398266   19.16036595775707    5.28761128147320
C        -0.23190999522168   19.18931214567048    5.84473786406892
C        -1.15065906184057   18.21206173054160    5.50808524368972
C        -0.76956252107895   17.22364485339589    4.61115634192474
C         0.51230067870204   17.25034470759731    4.09264726667452
C         4.34513353366119   20.62355261257974    5.18376102358299
C         4.28845821831160   21.75150779958169    5.99765216443995
C         3.08425585886779   22.06761950059926    6.61145512959466
C         1.96648001889372   21.26818829996659    6.41823363259737
C         2.08301762384942   20.14674976579277    5.60049542763035
C         6.23318868016398   18.63609631139832    2.81990329219178
C         7.49859512390645   19.19285339440982    2.80878188065199
C         7.76772558512950   20.26161853747337    3.65348841637649
C         6.74658940474241   20.74878588899594    4.44751815720122
C         5.49260826084853   20.14233134800351    4.41145736329373
C         4.77452851299363   18.01261156112191    6.81691666859046
C         3.91863207527353   18.68314978814847    7.69007721678215
C         4.41847828932275   19.61704262684207    8.57795382581682
C         5.77415685940931   19.90661281010881    8.59199990623624
C         6.62714662811240   19.26138189345057    7.71245854127411
C         6.13103374734072   18.32332522096499    6.82394099601198
C         5.45161943718998   15.72816520840321    5.28024879179776
C         6.02243711538580   15.12514343987636    6.40129953687112
C         7.04575437604916   14.21091849072211    6.24928907872611
C         7.50286991777243   13.88251408307558    4.98135482501970
C         6.93081603471326   14.46968663369880    3.86634890717529
C         5.90646194138416   15.39023476885430    4.01254074178717
C         2.92952434124920   15.82636937661874    6.45319301945578
C         2.88388833870981   15.74126092199789    7.84216287005165
C         2.01569306806461   14.85147779197337    8.45005106838696
C         1.19683443720539   14.03628729686553    7.68641535060014
C         1.26359005226917   14.09504286017174    6.30408408553126
C         2.12927520031561   14.97989069157958    5.68804301609322
H         1.15241106801476   19.57545068160896    0.07527223295642
H         1.86406700606761   17.97456463603050    0.38128721484986
H         0.55296378912560   18.57590633901057    1.42235610929724
H         1.53801215622236   21.71826979188928    1.45715907874398
H         0.95325130118867   21.00856586332548    2.97421241612133
H         2.51561861835466   21.84690972316268    2.93167981129788
H         3.45023406789740   20.77317120806109   -0.02376513407888
H         4.66158859232099   20.84765342449568    1.27835148631631
H         4.44910744554164   19.34522972476898    0.34533344825757
H        -0.49741099209063   19.97057507588557    6.53815235025214
H        -2.14088898720650   18.22181466594309    5.93471934192640
H        -1.45250850899955   16.44454594423494    4.31572157762957
H         0.84454086203119   16.49304995927020    3.39168047592957
H         5.15367578198564   22.37452686833967    6.14895261406714
H         3.01677742675022   22.94048086318681    7.24094136718827
H         1.03312972128541   21.51761216006112    6.89480419460799
H         5.97999853125529   17.82496952157917    2.14809949793278
H         8.25518382632603   18.79537278567116    2.15267656200016
H         8.74665572167552   20.71301672042116    3.68122154663871
H         6.91543746991029   21.59037039310953    5.09884898563370
H         2.85786799846170   18.46404860250880    7.67412034875185
H         3.75029874764348   20.11985281610548    9.26136978157899
H         6.16282781628210   20.63390758393535    9.28809800740566
H         7.68294137449047   19.48733897949818    7.71753735179544
H         6.79983907100044   17.81802211883682    6.13919066513120
H         5.66188706430213   15.37657930906679    7.38937493017992
H         7.48599523968585   13.74907183431118    7.12014932496002
H         8.30042057558378   13.16471311883425    4.86567905993973
H         7.27629066404966   14.20809621041116    2.87768527494946
H         5.45500841328719   15.82655397035035    3.13564342250354
H         3.52526990839672   16.35593292796807    8.45728092372663
H         1.98613631898279   14.79056218904202    9.52782015525872
H         0.52131250547569   13.34658350490809    8.16906791691421
H         0.64816777210442   13.44280047576736    5.70314395033408
H         2.21448878106355   15.00092020582840    4.61185762061008

