78
CSD_code = ZUQNII | q = 1 | S = 0 | Stoichiometry = C39H35NOPRu(1+) | MND = 9
Ru        4.17605042542912    2.69978154826837    4.71024579121799
P         3.89905564525746    4.80395770564280    3.82077018569455
C         5.76576046662499    6.89231286435537    4.34319568738994
C         6.24928258843856    7.92315907288700    5.13291954482806
C         5.60523137407283    8.26468470617216    6.31068204699493
C         4.45752836476107    7.58727712283585    6.69547891769393
C         3.96421774675545    6.56511475044163    5.90839188756446
C         4.62201311428547    6.20416041106561    4.73212697165936
C         3.87310077344193    5.20661327344531    1.02502256592908
C         4.47494487767024    5.23098307733785   -0.22198198963806
C         5.82209392983278    4.93910344060380   -0.35575295962004
C         6.57402842640391    4.61297643914633    0.76281593188748
C         5.97632999168864    4.58151429418901    2.00851857375136
C         4.62392809625511    4.89136394819767    2.15250386599078
C         1.13153605420183    4.47461813302299    3.69167895767614
C        -0.16556758264791    4.91387201107657    3.49027907318100
C        -0.40833137131056    6.24266361411973    3.18414309865773
C         0.64654057287407    7.13753078666804    3.08266631247082
C         1.94393838414806    6.70777231776104    3.28723214988504
C         2.19020109801503    5.36943948413673    3.59353526645874
N         5.37546937033937    3.45494959800313    6.14545604754828
O         2.54719387446164    2.96169621124807    5.94896441912172
C         4.99395068175242    3.88787860797569    7.30204712923079
C         6.79817620229158    3.34102786817661    5.86799531214284
C         7.63941933604867    4.50213396664561    6.42156313907838
C         6.83765317942501    1.33479428420010    7.44316829768086
C         7.42628292148991    0.16121292597229    7.88681207973718
C         8.56142191214002   -0.32912151454861    7.26618127698954
C         9.10820961438468    0.35818017652913    6.19486170069397
C         8.51927356563707    1.52720267538259    5.74905320743874
C         7.37850317254665    2.02722069138002    6.36904681915421
C         2.51781000067755    3.55461046367009    7.08900723866992
C         1.25242048566613    3.73419245632225    7.70137003356618
C         1.12676080102395    4.33517948932353    8.92437605137093
C         2.25424125231049    4.79184668748295    9.61491711464878
C         3.49292907399655    4.63081663587816    9.05644395025409
C         3.66706610967323    4.02265942903046    7.79496300313404
C         3.44768598252322    0.39166599565145    4.76066710964927
C         2.90723429721608    1.09263023796639    3.66117608454641
C         3.76479149423046    1.66148163050935    2.70441438320884
C         5.16552250304431    1.45664618904135    2.79914610898548
C         5.68882109793214    0.81387278269413    3.91508044663316
C         4.82783772147644    0.29727189662256    4.91546359571773
H         6.27003564381607    6.64067574680221    3.42192197315650
H         7.13246413083444    8.46187548285089    4.82426423776542
H         5.99059560966330    9.06591262717535    6.92214743831367
H         3.94424678981674    7.85919581091512    7.60509021633626
H         3.05786216781595    6.04387415570187    6.18707038432427
H         2.82165616140507    5.43423244408140    1.12178135369467
H         3.88785673896921    5.48010167656970   -1.09268605546805
H         6.28683424692388    4.96336869741044   -1.32912140118009
H         7.62418678112618    4.38264766537956    0.66066830139189
H         6.55550956043919    4.31926970304252    2.88624877169923
H         1.33366324204222    3.44511296675689    3.95156200677332
H        -0.98883957057799    4.22038117254727    3.57317249297872
H        -1.41993844445132    6.58404651880652    3.02680233117249
H         0.45627774068437    8.17303093252761    2.84465418778551
H         2.76909698506865    7.40275846515620    3.21040741916392
H         5.76064298594268    4.19912509638928    8.00840989923051
H         6.89095847970420    3.36229065564358    4.77040095971977
H         7.14721791935531    5.45276568678570    6.22812710686972
H         8.60950815338896    4.50221948351706    5.93232159141167
H         7.81185114785187    4.39289845790956    7.48922670537690
H         5.94975767477811    1.70162398917170    7.94020644330190
H         6.99543369854624   -0.36677626837890    8.72409510129795
H         9.02001310175525   -1.24065376400192    7.61622695910779
H         9.99525540382096   -0.01545473563641    5.70666568531184
H         8.95086097404005    2.06147358469801    4.91376299426337
H         0.39014029143746    3.37488065517264    7.16118788455628
H         0.14630216248296    4.45888287538982    9.35859930192337
H         2.14358588214513    5.26235379424243   10.57844920351804
H         4.37079614478443    4.98033462429251    9.58065162635081
H         2.78453009139577   -0.09760385189331    5.46444448280551
H         1.83442215392932    1.10202969280066    3.50590544002470
H         3.35219651277021    2.10593202355166    1.80299589298341
H         5.81005745441548    1.76268799404716    1.98361227127724
H         6.75229928942507    0.62321657062166    3.98851424823668
H         5.25190506796624   -0.25915901656813    5.74176611565206

