58
CSD_code = ZUQNEE | q = 1 | S = 0 | Stoichiometry = C27H27N2ORu(1+) | MND = 9
Ru        8.69880517570564   10.85016108443269   10.16523310816767
O        10.06063259552552    9.34114719718984   10.44137674455309
N         9.29396296279073   11.00087048684528    8.24202183409704
C         7.21731132813250    9.40192682849647   11.27678655759924
C         7.70986737459444   10.37264214220323   12.17072051268216
C         7.51148099268646   11.73667321128448   11.88870769242539
C         6.72072849789580   12.13352791246447   10.78057733824304
C         6.24086023696020   11.15993189401827    9.90372538787456
C         6.51104030497812    9.79026951032239   10.13164331485532
C        11.10871230293456    9.12108337498995    9.72546494610420
C        12.08271796301192    8.22846389643411   10.23505703723332
C        13.22880263171308    7.94604089432884    9.54166815837319
C        13.46681746021125    8.52381832992688    8.29066371822238
C        12.53130996297007    9.36451892160864    7.75167883584513
C        11.34195705952762    9.69023879445476    8.43769469864052
C        10.37534034021183   10.48412043846360    7.75852602781153
C         8.33551445628479   11.63873730465946    7.35339446591383
C         8.94363005442205   12.29104170548039    6.10258908634694
C         6.04172004018920   11.13289583977476    6.47053731339370
C         5.05520342514593   10.26373649939891    6.04196800596690
C         5.27679649754196    8.89636184377980    6.06601721565589
C         6.48964420711317    8.40640035437363    6.51676036072335
C         7.48114886525920    9.27596917024913    6.94302372190472
C         7.26306182277323   10.64672734068219    6.92517057557028
N        10.22158401261149   12.08423087014544   10.59097556562175
C        10.46765894164289   13.22448076162986    9.93471467619542
C        11.50053505838127   14.07307806476146   10.27106705854558
C        12.34480380759586   13.75871066326188   11.33677085809738
C        12.07199843900969   12.57409900040028   12.01585168059709
C        11.01555969802491   11.77801060691022   11.62148887113692
C        13.46914621885308   14.65364708693090   11.72021850516490
H         7.33683176501695    8.34952488245108   11.50773576945955
H         8.18009547764258   10.06881706967105   13.09804242632429
H         7.82583250340144   12.48509621571021   12.61082396722649
H         6.44345942274358   13.17358920815359   10.65647049575754
H         5.59194394440260   11.43830453122206    9.08235289754930
H         6.07603324928526    9.04545621113462    9.47721992230460
H        11.88475004963822    7.78050453440550   11.19662700994194
H        13.95578839906485    7.27076308116978    9.96644689126288
H        14.37313917005783    8.29555521446911    7.75384121517395
H        12.69688813296841    9.80238845828806    6.77800183302904
H        10.58821823734320   10.62763948097535    6.70195017679378
H         7.85481022011730   12.43767332398147    7.94113556920366
H         8.20165087418917   12.94373346798607    5.65161810719906
H         9.21701591049087   11.54582918095100    5.35997119983753
H         9.81755995440591   12.88583378526605    6.36071257643607
H         5.86424862241582   12.19916867700238    6.44808468954893
H         4.11357630809507   10.65417692046108    5.68773850058200
H         4.50798572197336    8.21741065852677    5.73174107060905
H         6.67160516406709    7.34261291125944    6.53465616017139
H         8.42390747951307    8.87415193127489    7.29008878462432
H         9.80554653556571   13.46677415645227    9.11135501712776
H        11.65113004870796   14.97954562893186    9.70616816324115
H        12.67987098375851   12.27004066073433   12.85306993066911
H        10.80160934216330   10.84894984596134   12.13708049403445
H        14.01538568694046   14.25796296938458   12.57102898470784
H        13.09291198376194   15.64415177653412   11.97190457354234
H        14.15665207756926   14.77118318774102   10.88403970008354

