54
CSD_code = ZUQXAM | q = 0 | S = 0 | Stoichiometry = C23H20ClN3O4PdS2 | MND = 4
Pd        3.79916148773711    2.78532833512106    1.76878678284054
S         2.90105386521575    0.87994844540781   -2.30881521309615
S         5.05684258735847    4.27567371617191    2.91975485415001
Cl        2.36513990018985    2.70309413579463    3.44114826626608
O         2.20147283109071    0.00808138962955    2.41053307011532
O         0.84077058954099   -1.40430608235351   -2.77627967251447
N         3.11685494415791    1.34777641486287    0.22450348860606
O         5.28393912907061    7.03489606725095    3.10192682859229
N         4.93402466584110    3.23974869661827    0.21345137067046
N         7.15367846378151    5.53202451420693    1.74513059850668
O        10.58105508510958    7.17283613246331    4.68148311950432
C         6.56694239748961    7.05679019054623    3.56108940476388
C         4.59722362934862    2.74803673843316   -0.99781217779373
C         3.57744099860841    1.73333064523419   -0.93819695945974
C         1.06943980070060   -1.11478313619785   -1.46679704585678
C         1.96880876586255   -0.08015762834303   -1.19803169897579
C         0.50504336885679   -1.74926786961765   -0.37030443994022
H        -0.19794978426758   -2.55260819308651   -0.52036584211622
C         8.85038013499135    6.32370073008010    3.18547095791527
H         9.52430174711330    5.71725771048983    2.60271225360480
C         5.87905384340028    4.18745381877326    0.30659211520330
C         2.25271209623078    0.31019194187128    0.11788320098004
C         7.01955915913648    7.82807195565999    4.62255660486867
H         6.32833153319714    8.42549207441414    5.19545675619281
C         9.28433154029264    7.08658923402377    4.25610430212028
C         7.49702669653234    6.27210503025126    2.84582646341893
C         5.21810846296465    3.18015881894474   -2.16717136039326
H         4.91214957111911    2.76647449156903   -3.11511102652590
C         1.63836654608238   -0.52907546077965    3.58607985236038
H         0.55360034645513   -0.39581846854995    3.60082526784678
H         2.08003947718797    0.04308727675267    4.39932011247118
H         1.88402436143175   -1.59105335346193    3.69092510594993
C         6.21980058236577    4.13251474471133   -2.07221312487006
H         6.72706380943993    4.47888714511139   -2.95918435317262
C         0.83350714153177   -1.41003245180160    0.94470987636523
H         0.38258827226358   -1.97501022800156    1.74418187223016
C         6.55274476370697    4.64147103210412   -0.82774426011749
H         7.31566318502559    5.39034385282222   -0.69438811892640
C         8.35474633293079    7.83532790878887    4.97589049178531
H         8.69962493444207    8.42589450321717    5.80909006722350
C         6.14377856104663    4.75615184988005    1.62916901860613
C        -0.06791999305752   -2.43482217521372   -3.08291490861814
H         0.27012041868050   -3.39790005232024   -2.68789803834669
H        -0.09957062409405   -2.48133691425642   -4.16991017252745
H        -1.06875578415486   -2.21280720179382   -2.69985329325594
C        11.55386333109780    6.42130106782645    4.00087223211481
H        11.34283825993055    5.34804106644099    4.05345456064090
H        12.49517775451544    6.62815160100224    4.50829239135225
H        11.63454689659122    6.72306341777712    2.95117839879667
C         1.72445490986138   -0.38860175871529    1.22224654706854
C         4.29924162949879    7.73913168350041    3.81459937784294
H         4.23420211188952    7.39612609116390    4.85139309968721
H         3.36061405836218    7.52069695867419    3.30757162563179
H         4.48324120627565    8.81892954691657    3.79438137019696

