55
CSD_code = ZUQXIS | q = 0 | S = 0 | Stoichiometry = C24H26Br2P2Pd | MND = 4
Pd        0.29179363523865    3.78738924001026    8.16272498793483
Br       -0.85520360332799    2.10017707247531    9.45782116535047
Br        1.44886269626642    5.45792105884573    6.86121279223098
P         1.57524703577319    4.25718772710669    9.95983582189511
P        -1.04491212840000    3.27643475188696    6.41490013863228
C         2.38219390757930    5.82836016479630   10.26890148736635
C         2.12911137807322    6.24760787826002   11.52358089830555
C         1.32819177564410    5.30695564678310   12.31507332409627
C         0.98700325305175    4.18561793776177   11.65101268029966
C         2.60163839918179    7.53782009763071   12.10015930773640
C         0.95277192533746    5.60609991494500   13.72578485883376
C         2.92863623612959    3.04067699813444    9.84877955106801
C         2.99390597298298    2.20387571071455    8.73835797933893
C         4.01448362243821    1.27488752219170    8.63634870048522
C         4.96617870187931    1.18072213739260    9.63750801299610
C         4.90252791142391    2.01604987732181   10.74252917873072
C         3.88731983252659    2.94671024388950   10.85152848397666
C        -0.67200480489164    3.59530305674885    4.68981746448343
C        -0.89687368710378    2.49326498602091    3.94913944553815
C        -1.43050112134728    1.36092906985711    4.71448328911417
C        -1.60385408852687    1.61947562339783    6.02527945364689
C        -0.64763239326467    2.38926514505510    2.48374585441921
C        -1.74317641023892    0.06075441791234    4.05695840627399
C        -2.55204750935384    4.24758814981225    6.75058354541031
C        -2.54112544976069    5.16931226763582    7.79379509479818
C        -3.67364867295919    5.91750858066783    8.06297343337722
C        -4.81312554659176    5.74751664752365    7.29509536225575
C        -4.82313310683442    4.83177755028199    6.25397283668741
C        -3.69602189367268    4.08189937534216    5.97790392448799
H         2.93353148150997    6.37083771001925    9.51910030227521
H         0.39170688164352    3.37545460852200   12.03825801233699
H         3.21381086135596    7.35853739104545   12.98360957549024
H         3.18885301798316    8.08931751954099   11.37075214054127
H         1.75274622790562    8.15056647472439   12.40221798028949
H         1.84496785155430    5.74144901724663   14.33665838263074
H         0.37294640512590    6.52726943253832   13.77584368172656
H         0.36051653885204    4.79603021222963   14.14305378841504
H         2.24126740419056    2.27249672594913    7.93711368374915
H         4.06583060840879    0.62403617205851    7.77610715939854
H         5.76068704826379    0.45377862611532    9.55783279144955
H         5.64707394190930    1.93943542890082   11.52125858908075
H         3.82684304741872    3.60264580299196   11.70883520666222
H        -0.26672765911506    4.52684243509804    4.33151454132349
H        -1.96976754325238    0.92732984287874    6.76545018414563
H        -1.56951357290886    2.14284966681766    1.95753115561158
H        -0.26092349145183    3.32770266539475    2.09544321024636
H         0.07478407389079    1.60014262573686    2.27745564122063
H        -0.84611562290284   -0.35934613508284    3.60304368558190
H        -2.13468882127711   -0.64885210362762    4.78109431552159
H        -2.48046644620083    0.20156223948737    3.26698323945608
H        -1.63895210558190    5.31170787003381    8.40961327573986
H        -3.66686238780256    6.63142721182761    8.87326993458149
H        -5.69738608313072    6.32942862502316    7.50833932426017
H        -5.71413523141535    4.70188926925603    5.65741978683326
H        -3.69323229224061    3.36377181484875    5.16979293167266

