61
CSD_code = ZURDEV | q = 0 | S = 0 | Stoichiometry = C29H26FeO3P2 | MND = 5
Fe       12.00520582761752    0.28081333841380    3.25925782290863
P        12.15496100079993    2.04826677401998    4.45078511324003
P        11.85908863763209   -1.53615647596678    2.14356684885353
O        11.11936541149829    1.86628053741280    0.96070943135878
O        10.02933810004859   -0.89017379988695    5.07551004872736
O        14.86164840847547   -0.13617041450444    3.75204067496904
C        11.46394040664600    1.23562025572893    1.86641719503920
C        10.81322320426118   -0.41390005928931    4.37191604422408
C        13.73462069632540    0.01928933596938    3.54411876559858
C        13.10816980130109    3.44572568161088    3.73757313433956
C        12.93193048517451    1.82877140587645    6.08450405492351
C        12.15248390268150    1.28356431903669    7.10291494427007
C        12.70597721770776    1.02677777495274    8.34182502458843
C        14.04614540577590    1.29856786574876    8.57114684672009
C        14.82970830486328    1.82208527434826    7.55689723123274
C        14.27911382038545    2.08406522533893    6.31426113815329
C        10.64088971056899    2.95329383789008    4.92932576630834
C         9.43276946450089    2.66802667958169    4.30762112009632
C         8.29397273646821    3.38001453304807    4.64285198332883
C         8.35759751105386    4.37690892003510    5.60134529085944
C         9.56157786243435    4.66357459858694    6.22671207674648
C        10.70111559597438    3.95740464125942    5.89303014745874
C        12.53217988468668   -3.04479572939931    2.94188607329947
C        12.68410004174277   -1.68310161076410    0.51907805275097
C        13.62719923045886   -0.74082107002087    0.13202297639044
C        14.28299209193400   -0.87044679546923   -1.07996419429112
C        13.99694749105098   -1.94062534231515   -1.91035456603254
C        13.05417448188523   -2.88325717615324   -1.52900793319804
C        12.39956558067128   -2.75891313725346   -0.31868828008935
C        10.16595932976473   -2.04064593127101    1.69557600359403
C         9.56708453930333   -1.40524001445698    0.60932712936751
C         8.25792275911476   -1.68793274259114    0.27230445570128
C         7.52996212738283   -2.59657625603439    1.02529754282887
C         8.11425717873212   -3.21684297806880    2.11652389740618
C         9.42708985328699   -2.93969752078068    2.45652822010184
H        12.55025248129115    3.80928152463482    2.87137372704445
H        14.08028759253186    3.08467659431429    3.39746855120197
H        13.22902265306222    4.25078199127920    4.46435086953491
H        11.10853801152886    1.06907842019823    6.91085865599663
H        12.09524706878408    0.61062705111031    9.12984222039398
H        14.48033070041835    1.09636127275260    9.53929356574832
H        15.87636503484299    2.02501983871752    7.73251318205260
H        14.90073533450623    2.48279376219207    5.52526860106031
H         9.39457675475399    1.87998125872114    3.56515184078031
H         7.35588921729191    3.15397429271823    4.15724567929229
H         7.46849469974319    4.93038250207276    5.86575230361605
H         9.60963447801453    5.43886036534192    6.97775097479693
H        11.63930410884502    4.17146062421666    6.38842033999161
H        13.61508547989391   -2.91783517334696    3.01104437924919
H        12.30012972200221   -3.93609375756539    2.35632581414023
H        12.12927954948189   -3.13020964402522    3.95237317480862
H        13.83453318296810    0.09500517396288    0.78919096349139
H        15.01547968001607   -0.13440882715559   -1.37783233460838
H        14.50573477389466   -2.04077478001931   -2.85788444831325
H        12.82900332703141   -3.71615764583514   -2.17937427696258
H        11.65520107473744   -3.48734070647881   -0.02427047576283
H        10.14254100769347   -0.69209783034042    0.03217634645899
H         7.80104058554743   -1.19751007065771   -0.57499413769682
H         6.50512464555638   -2.81616647398941    0.76410570590254
H         7.54420791595191   -3.91785605190153    2.70910073219407
H         9.87198281739128   -3.42038765555951    3.31618796381882

