36
CSD_code = ZURGOK | q = 0 | S = 0 | Stoichiometry = C11H19Cl2N3Zn | MND = 4
Zn        4.91906407775025    8.29063955362399    0.45367411791087
Cl        4.18286985528164    6.94055444778240   -1.12065676132927
Cl        5.28845595151228   10.47154948462657    0.26434874860907
N         6.45940953667417    7.45828744505798    1.57759764613289
N         6.73455569955247    7.98372672184238    2.77969255831692
N         3.47476790569427    8.10148741176601    2.07951641503261
C         7.27390345533204    6.42469359524364    1.39566393621820
C         8.09395565170214    6.28621188974742    2.52173362723862
H         8.85488997053555    5.54965917586544    2.67747403258397
C         7.72361562409504    7.29709683511673    3.38622150509150
C         7.27087833539150    5.60914815038677    0.15841071611345
H         6.29025073620704    5.63297102833902   -0.30974975769373
H         7.54591304581593    4.58189185240781    0.38368504948699
H         7.99387798829859    6.01036580526375   -0.55148663920866
C         8.26567158593383    7.65135741685988    4.72257412985898
H         8.68322186377113    8.65795961948966    4.71422181353134
H         9.05477201002791    6.95408978764523    4.98795059963407
H         7.49270168775903    7.60968367859272    5.48883150370267
C         6.01325154720778    9.11639756865051    3.28900454926671
H         5.73128250728270    9.75547721069221    2.44709190126638
H         6.68529104159375    9.67851372432671    3.94114057774912
C         4.77041823975268    8.71589140031351    4.08822897617225
H         5.02386450223907    7.93100123550548    4.80963221546191
H         4.44504963975590    9.58330827057502    4.67070302042210
C         3.57792707118380    8.24966782717466    3.32570225890237
H         2.71630973717554    8.03369489112181    3.97200835080941
C         2.20666792310747    7.69882106100276    1.52921739751408
H         2.39404558799720    6.86544807713349    0.84836857831670
H         1.51309648957745    7.38159472290069    2.32041129176943
C         1.59583818187928    8.85162811946651    0.72812391335625
H         2.32613956032751    9.19288693662102   -0.00920327431990
H         1.38338552611075    9.68519970064146    1.40196751719705
C         0.32620224270247    8.40750243499907    0.01650201880882
H        -0.10483659006733    9.23967311689272   -0.53354976559148
H        -0.41165374492279    8.04577881250286    0.73022983164292
H         0.55074555575881    7.60934098983027   -0.68628259997377

