133
CSD_code = ZURKOM | q = 0 | S = 0 | Stoichiometry = C68H56N4P4W | MND = 6
W         5.36138047267662    4.18149142439884    4.48773327460239
P         6.95404458080131    5.80633199976140    5.23278403438340
P         4.02403815548828    5.27289001549075    6.18979613005363
P         3.95299657485503    2.45739241376565    3.62980327501725
P         4.21668349324835    5.44991685079406    2.74683984060918
N         7.88699892406572    2.96688034905449    3.05096482932383
N        13.11917891923972    1.46812515287738    2.46312942232864
N         6.18939486961176    1.70885706465825    6.25769042793022
N         7.89124280569500   -3.29808223804478    7.65545471605435
C         6.85783436827031    3.43257464415598    3.42301157018695
C        14.23798322833477    1.14903286492173    2.35039225656536
C         5.97079518915633    2.73372912255603    5.69361932432748
C         8.24065464024881   -4.37632446482256    7.94111709572656
C         6.45188390074510    6.51043795312270    6.86901772263405
H         6.71411303853710    5.75399599116008    7.61672419186869
H         7.01341472431134    7.41947028408453    7.10906522674371
C         4.94994212870048    6.75445645477092    6.85434513156532
H         4.72329903549833    7.58135665791803    6.17260768614491
H         4.58052220134336    7.00200313557218    7.85653877922506
C         3.39045768816347    2.92147028178106    1.93293807772378
H         4.26057771136274    2.86508846743467    1.27255794492928
H         2.62625862371008    2.24197684393656    1.54368565832990
C         2.89787528128366    4.35761756985963    2.00774437586511
H         2.03024666089662    4.40721966865597    2.67406949799017
H         2.61642637151011    4.73816646272873    1.01845909478251
C         9.16751998240380    2.60121968479655    2.87944150932968
C        10.17371480904233    3.57395872563024    2.78717935065359
H         9.90698987749454    4.61870510505235    2.84503571377383
C        11.48719154764776    3.19518425158058    2.64878646216335
H        12.26967989613510    3.93714368650837    2.58807445457735
C        11.81982732291219    1.84010504754474    2.59148619097358
C        10.82157026991362    0.86661925132296    2.66644796176844
H        11.09442579390904   -0.17750952645717    2.61792643866060
C         9.50638726337085    1.24324275688397    2.80473770300198
H         8.72267319349136    0.50256005113568    2.86788566028410
C         6.62448562422022    0.49244747203868    6.61933701802503
C         7.76998201603998   -0.05328940722644    6.02183657484061
H         8.30423774213022    0.52840917114776    5.28568191218265
C         8.19191943263692   -1.31381595598764    6.36871086967088
H         9.06912892186230   -1.74751005700087    5.91131577013207
C         7.48158509963540   -2.04735339616860    7.32190230760386
C         6.35031146154350   -1.50201963550074    7.93272428881895
H         5.81631540731962   -2.08190019462668    8.67145899124845
C         5.92604574253323   -0.24070883792395    7.58731042992039
H         5.05018053975638    0.19364981244748    8.04673581669296
C         8.68137966762692    5.32299734926630    5.60228253418189
C         8.94324979169814    4.00115634192556    5.94193825685393
H         8.11806154277847    3.30494931133707    5.98800283464571
C        10.23516947176500    3.57945823753956    6.19568105924510
H        10.42531470099220    2.54630632421704    6.44907923636405
C        11.28420855113643    4.47958869403678    6.11372854814622
H        12.29640712972190    4.15144981624070    6.29854877651180
C        11.03138798812620    5.80263841555453    5.79085650478956
H        11.84703740540431    6.50910112392115    5.73092233319375
C         9.73918892026167    6.22579390887480    5.53673736729731
H         9.55592829984373    7.25926382657346    5.27672016639484
C         7.31982643896969    7.25827015173323    4.18625091696628
C         7.70444465812025    6.92924266797476    2.88814065162533
H         7.77485587071923    5.88169293403271    2.62386354833675
C         7.97845634869892    7.91295237420553    1.95972567166586
H         8.27446674570865    7.64282190271339    0.95660128409600
C         7.86120667669445    9.24709548706540    2.31756140972196
H         8.06604558217291   10.02226602055493    1.59409021160076
C         7.48032215646194    9.58545574032569    3.60476601641345
H         7.39104076594025   10.62560533150912    3.88503090789594
C         7.21155495517465    8.59951284246261    4.53953801006843
H         6.91090215061401    8.88677364632007    5.53758163462241
C         2.36537671125128    5.99798202441954    5.92976095744997
C         1.45579635449251    5.16557697539664    5.28358222187337
H         1.78797399344995    4.18300287725652    4.97610205441199
C         0.15468165577083    5.56768212449044    5.05685314158719
H        -0.53972162778697    4.90025426150795    4.56564776549622
C        -0.25410565787689    6.82665965802956    5.46493524969621
H        -1.26924175919433    7.15197331964035    5.29053852701929
C         0.64435572066086    7.66653301357986    6.09979982502324
H         0.32822892935689    8.64912350598796    6.41976400934941
C         1.94520747724371    7.25812368605026    6.33888193519125
H         2.61740898078110    7.92910850091767    6.85119190454471
C         3.72097305380669    4.40014623229947    7.77317104053467
C         4.80748856316119    3.76013415720070    8.36446512407259
H         5.77231539597486    3.79991493496334    7.87680772844807
C         4.65772625008197    3.05551581642876    9.54321995900525
H         5.51048199376330    2.56279236174334    9.98848500126777
C         3.41333885491152    2.97576988242031   10.14801696432524
H         3.29061316680832    2.41999642062377   11.06625853741402
C         2.32767993848083    3.60866355251213    9.56750906822652
H         1.35460469072356    3.54978604425823   10.03453329767186
C         2.47618152613625    4.31730769281083    8.38748979644768
H         1.61657253503193    4.80046221367237    7.94596402898964
C         4.74525291763877    0.83492478930460    3.36182599402383
C         5.66222437312973    0.67749578712814    2.32552696084973
H         5.84072970021762    1.48721540202859    1.63249502807800
C         6.35698549768505   -0.50778201407339    2.17467079409920
H         7.04781962192351   -0.62401054764007    1.35098118452028
C         6.17136559656181   -1.54486201990865    3.07486183182756
H         6.72391283171727   -2.46624606897829    2.96426360577354
C         5.27478699768338   -1.39230960743736    4.11755811929875
H         5.12853440823770   -2.19393497883757    4.82706955077984
C         4.56327663008290   -0.21432053825103    4.25859269695181
H         3.86005845321931   -0.11353347817463    5.07296475653207
C         2.43121444424167    1.91565828842830    4.48716815471661
C         2.54474791027055    1.84802129705269    5.87586493021287
H         3.49006673534661    2.11986370037851    6.32951892130635
C         1.47202646896003    1.46508501527871    6.65620389866104
H         1.57710448378960    1.41361239602720    7.73025133760029
C         0.25986470465610    1.16112169549991    6.05609264853155
H        -0.58714621293781    0.87194998255997    6.66069384443044
C         0.13576053933065    1.23080426442883    4.67910551170075
H        -0.80915738751096    0.99448361159422    4.21047492278410
C         1.21545159399560    1.59813220878891    3.89316161232394
H         1.09546452885356    1.63576845054388    2.82015421678651
C         3.25702177569690    6.98513305079699    3.01548192726489
C         1.92044199480567    7.19287940273942    2.69442426470081
H         1.33019830977746    6.41648346711948    2.23303557343637
C         1.32575712494583    8.41500844206529    2.95701909615596
H         0.28599320727606    8.56485345298028    2.70375547806022
C         2.04959470463002    9.44414733226096    3.53332984187764
H         1.57640597028482   10.39465746078073    3.73149822081788
C         3.38378315068312    9.24893999073058    3.84944116159052
H         3.96263803211562   10.04828350200103    4.29066197780634
C         3.97464352686865    8.02769392170372    3.59383706261658
H         5.01839262483552    7.86412421666629    3.82183770654417
C         5.07773187973040    5.90474502612803    1.19333810383128
C         6.04516390991877    5.02239542808492    0.72454479792443
H         6.28005751112863    4.14629410549576    1.31685546338748
C         6.71887728921218    5.27323540166062   -0.45541622859817
H         7.46870238813752    4.57931277166064   -0.80843857345176
C         6.43811628002833    6.42161857559987   -1.17799632536803
H         6.96733802060630    6.62707240951983   -2.09718131352381
C         5.48128692442183    7.30881045060878   -0.71478298638542
H         5.26285899056409    8.20749800823170   -1.27378368741068
C         4.79904191083301    7.05359193762003    0.46177197108288
H         4.05290153990576    7.75386932906345    0.80923491813029

