59
CSD_code = ZURLON | q = 0 | S = 0 | Stoichiometry = C19H32AuN3S4 | MND = 4
Au       17.69431462138261    3.79896249094734    0.68425418822316
S        16.13382307163421    3.31669621162725   -1.10223450012452
S        15.69670207614461    2.98964097957392    1.73740498669361
S        19.76342335610679    4.28204148293200   -0.44359834859253
S        19.21021777326746    1.45739176606846    0.13419348668629
N        13.99374214473561    2.10833316699119   -0.10322092068305
N        21.40971457645889    2.30136038922688   -1.04657883279135
N        17.16209787110258    6.25472009915732    1.00335476810377
C        15.13786929006258    2.72576688300093    0.14052280880813
C        13.54743253924446    1.87349763988025   -1.46221909283082
C        12.72016683535238    3.04298220620904   -1.98668577079312
C        13.16741890290468    1.60334967371203    0.97528348523810
C        13.56678379682681    0.18300818567018    1.36237930403343
C        20.23254819047155    2.61531270777174   -0.50632449353407
C        22.25842490389658    3.31404996295446   -1.63981195308332
C        21.84588411781813    3.67463189646574   -3.06449020891706
C        21.82590842824927    0.91371168878499   -1.11243116922850
C        21.24331582189155    0.17678804471177   -2.31442787385652
C        18.83357601569728    5.59327812722633    2.65435318866908
C        18.66482332135137    4.24665138253462    2.36372032317420
C        19.09720644048021    3.26926046271014    3.23340214727962
C        19.70915416154453    3.63268131187993    4.42480715088695
C        19.87595721211328    4.96944910639443    4.73423500575647
C        19.44090478583201    5.94359874691767    3.85371543557182
C        18.41303469239215    6.63417607227388    1.65590347688142
C        16.03831080336731    6.44588281976740    1.90355149148409
C        16.96171940413106    6.98282569027529   -0.23693030705507
H        14.42736092952582    1.73627173802042   -2.09518514948569
H        12.95827757065080    0.95452375854763   -1.46825815549224
H        13.32961947413719    3.94229420883169   -2.01244155248980
H        12.37618888001200    2.82648605904045   -2.99400073691594
H        11.85554249191031    3.22193763462028   -1.35110980141580
H        13.28364284419458    2.26422343894481    1.83749292738100
H        12.12734247507160    1.63366472705539    0.64292193023165
H        12.93027223923139   -0.17275890021329    2.16720087831609
H        13.47139432051436   -0.49107256927007    0.51445107392552
H        14.59869424536547    0.17045668946478    1.70299466996887
H        22.20469998449490    4.21034078139541   -1.01433244638009
H        23.28497282853012    2.94063493675851   -1.62796467923822
H        22.47885893429968    4.47677980707713   -3.43392432789547
H        21.94194593293115    2.81974260046961   -3.72832134694468
H        20.81376060115198    4.01407545543578   -3.07542802026496
H        22.91747064692839    0.89148953237078   -1.14421871076383
H        21.48741499810136    0.42090411720053   -0.19672536959860
H        20.15863034966231    0.23183028063302   -2.28616561865214
H        21.59481450859889    0.60657331000183   -3.24849173932741
H        21.53828571015086   -0.86825637346158   -2.27735395496313
H        18.97109875644122    2.22479076569336    2.99074348382423
H        20.04932350279741    2.86451489301068    5.10309466054382
H        20.34790013142262    5.25617456055460    5.66256307052620
H        19.57512307704659    6.99009883986787    4.08935169459785
H        19.18812203222700    6.68409046008933    0.88253056180926
H        18.33579181316751    7.62478084470983    2.12943217189795
H        15.89441990913591    7.50536777227633    2.15629947093966
H        15.13050184505119    6.07027496186694    1.43313769010970
H        16.21015850742021    5.88315878259754    2.81993667223821
H        16.89168875052575    8.06670951243777   -0.07406946195673
H        17.79125080777732    6.77579136317557   -0.91140340225027
H        16.04205574706806    6.63715681516186   -0.70728425827123

