57
CSD_code = ZURXAL | q = 0 | S = 0 | Stoichiometry = C22H28HgN2O2S2 | MND = 2
Hg       12.36836441841159    5.52763548699584    6.11307734787095
S        13.04237227835821    3.91422092035726    4.26259235317035
S         9.98178684258671    6.34250414605821    6.35305995336261
O         9.35905080162996    6.96968174651083    2.20039413308056
O        10.91578170736871    3.84819046926408   10.79103996139706
N        11.13485906117851    5.73046074388698    2.89272707801170
N        10.23480441039140    4.68965736031157    8.79424907572095
C        11.36255392676016    3.54505768515011    3.84644006372290
C        10.56121358840934    4.50157001555266    3.19540317485977
C         9.24645643848752    4.16829323473193    2.88544927356372
C         8.75199725430673    2.91543666623800    3.19678968384900
C         9.55486963487646    1.96746396822310    3.81176056108469
C        10.85919206056611    2.28515355867892    4.13867711675596
C        10.53844879486108    6.87508141445959    2.44393589980928
C        11.51590122517417    8.05584738755267    2.31527248824929
C         9.83668065894462    6.91625221035673    8.01610709569873
C         9.97116627857233    6.02418520654841    9.09342469527096
C         9.84994167460055    6.51340085961543   10.38878645923696
C         9.57780153064244    7.85224886215190   10.60390156533630
C         9.42432920369227    8.72383747480435    9.53707369276832
C         9.56058420247575    8.25628501263664    8.24410919293696
C        10.67527109729340    3.69319972367390    9.61544757492675
C        10.93911647108023    2.35875482927193    8.89693921456511
C        12.77955789527173    7.66510607484200    1.54131932686988
C        10.79516887108841    9.18570426634931    1.57636432519956
C        11.87596606406809    8.52885297586244    3.72913327828454
C        12.42105702814264    2.38605472988538    8.49904454315230
C        10.70133708064985    1.22755006002991    9.90155629931804
C        10.07144029838299    2.13354567416931    7.65662486655523
H        12.14449159575750    5.73552721535865    3.00552658374138
H        10.00672439713221    4.45099569344428    7.83398822232885
H         8.62433861954386    4.90457290604844    2.40512682555341
H         7.72906424564102    2.67605063521684    2.94948717800132
H         9.16670191601359    0.98713826412769    4.04162912720048
H        11.50615472934086    1.56406611431812    4.61565330770448
H         9.97302223031641    5.83445524118512   11.21600467641984
H         9.48184538791726    8.21578994038746   11.61559315412164
H         9.20639795814595    9.76646639351432    9.71008442069135
H         9.45401264239941    8.91880400339177    7.39875676245258
H        13.43356706480492    7.00822472085768    2.11305809383722
H        12.51969825726800    7.16990623066729    0.60806716372846
H        13.34816798847905    8.56164746714664    1.30240547638660
H        11.41923383436808   10.07514189189413    1.53854416430781
H        10.55797226117315    8.87842460614605    0.56100122466018
H         9.86301538787684    9.42698741969969    2.07961138089778
H        10.97227158235168    8.75536821660642    4.29130378435413
H        12.44544697031918    7.76415827796918    4.27751884764197
H        12.48806079934765    9.42703932191646    3.67796080878494
H        12.69776090466419    1.45633126122118    8.00704072609719
H        12.62310218763654    3.21574358673926    7.80392284535712
H        13.04708507960102    2.51787694764538    9.37842749495456
H         9.64017002031539    1.13729414482030   10.12224138997088
H        11.05773588807276    0.28149080631316    9.50186808375349
H        11.22511818938449    1.44023563721543   10.82949103987635
H         9.01915982339374    2.30943669759862    7.87186944508592
H        10.37414806156742    2.76253943605065    6.81590947361698
H        10.17676117863942    1.10025415776509    7.33200800303615

