46
CSD_code = ZURZAN | q = 0 | S = 0 | Stoichiometry = C19H20ClN2O3Re | MND = 6
Re        3.67082027813235    6.18796473317478    1.24743017401270
Cl        2.08468588201033    5.85609213484249    2.89116169494215
O         4.60464118981163    7.22945654475444    2.13938800703245
O         2.44571666058251    7.56827101170903    0.23265313888931
O         2.68498016490194    4.94859232603811    0.20938503981376
N         5.08148193896760    6.34282338303541   -0.34616005982473
N         4.63230827914895    4.43798339703677    1.86386991790261
C         4.79033923326963    6.83423096673294   -1.49811340552405
C         3.55968671116075    7.40948511382600   -1.91770728899636
C         3.44186423417214    7.71970589056917   -3.29086542141419
C         2.34243861071656    8.34754038318430   -3.80683427460413
C         1.30344662765444    8.72035061568174   -2.94515734005290
C         1.38020513603105    8.44793018742515   -1.60887866193103
C         2.49163025713208    7.77297481597457   -1.03194623759226
C         6.45877926873048    6.05207720255279   -0.02642661384438
C         6.73361979583085    4.67294161522218    0.60858285024708
C         6.25677568915160    3.56839603354071   -0.33754581062237
C         8.24643354304158    4.55553416870188    0.82081232754468
C         6.06176214275553    4.52995775864083    2.00057335223783
C         4.06543609805952    3.28349283067026    1.96419405300884
C         2.75965842099355    2.96096808110652    1.48169477279325
C         2.14963699087087    1.74406210238792    1.81234832697888
C         0.96502065603070    1.36584684513734    1.22764341146650
C         0.37675492938774    2.18322159542976    0.26281267231543
C         0.96137738222799    3.37197345966981   -0.10518979627362
C         2.14272804621452    3.81096285878465    0.51567276961527
H         5.58079807447277    6.85512173896156   -2.25615694117447
H         4.25534182463944    7.43891652084709   -3.94668735862477
H         2.27665630467943    8.56279139348882   -4.86211259561776
H         0.43457848025836    9.22446560258516   -3.34294666373798
H         0.58867147489439    8.72908560235883   -0.93148091426997
H         7.07729211706929    6.14369593526720   -0.92919013997838
H         6.77164129197752    6.82437881176767    0.68719088656700
H         5.20195508150256    3.68827422747280   -0.57783422388761
H         6.82150148849279    3.60458269511320   -1.26673358660706
H         6.40061719320051    2.58709365816304    0.10949589300307
H         8.77620043714686    4.67776296991604   -0.12047570125116
H         8.49883821972488    3.57858495694668    1.22545654485089
H         8.59643173995544    5.31666636413899    1.51332602418767
H         6.29414576577695    5.41031269337114    2.60658459148783
H         6.45838559320203    3.63271897945711    2.49024306154520
H         4.64982293000551    2.45066182107432    2.36007729649008
H         2.62092606488579    1.11482495750741    2.55365332097398
H         0.49194617806356    0.43763035308197    1.50807067728496
H        -0.55091067523530    1.88019911997933   -0.19989378087365
H         0.50783224830047    4.01609554267181   -0.84368398848944

