91
CSD_code = ZUSBEU | q = 0 | S = 0 | Stoichiometry = C27H46BMoN6O5P3S2 | MND = 6
Mo        1.82719025807563    7.32118895706326    2.94229361110898
S         4.15319770440454    9.99960479898130    4.66212865221959
S        -0.36017197481458    8.21406371749899    6.54314077857344
P         3.04248841041298   11.50555473525295    4.13111721314667
P         1.24035901036882    9.25117770398960    4.26280200885309
P        -1.56684263084401    9.15968886768442    5.22322446513999
B         1.24633166214779    9.31274761550285    6.18459956855148
N         1.58086117082129   10.83957709741912    3.58975452483102
N        -0.50433478972223    9.59556608551331    4.02148597441913
N         3.52585127620085   12.48249231182666    2.84470940356366
N         2.68662366238452   12.57535901561403    5.35395305386559
N        -2.79993508720626    8.27412342956448    4.53379803118358
N        -2.34982730313972   10.45603099177612    5.92532433647110
C         0.50807536434316   11.34765022370521    2.85786709137994
C        -0.67306729779708   10.62377269415799    3.07853712218216
C        -1.83470950929831   10.93775352069732    2.40886033145196
C        -1.83148223785600   12.00466384767699    1.51739828597850
C        -0.67960326705775   12.73977305270881    1.31941766678043
C         0.49775129013866   12.41933976634527    1.98447502526197
C         4.38647634111648   13.62522187235590    3.11178901674028
C         4.03263417727556   14.81181912294347    2.21978797444080
C         3.77118516218911   11.77614043328863    1.59130958312511
C         5.21136257127914   11.32130872954011    1.38745058838258
C         1.72794853569655   13.64255169996454    5.13033098122396
C         0.35302952360567   13.35443471006055    5.72837615969605
C         3.25599681078923   12.42982918157145    6.68146475742030
C         4.43796227944090   13.36327124714690    6.92125040151856
C        -2.61429227574998    7.52427837641308    3.29716130821157
C        -3.84004671993556    7.61577803304638    2.39390330735209
C        -3.75743834057454    7.71571518401801    5.48530687689867
C        -3.38799006136708    6.33532155424539    6.01437299538227
C        -1.98081733083940   10.89494609273216    7.26718030088217
C        -2.75203469487110   10.17285998709464    8.36674584409178
C        -3.57377407755606   11.03271082537450    5.38869743608741
C        -3.39247777738123   12.47752826251035    4.93265255863441
C         0.42990067041632    6.31032261313764    3.86899162003061
C         0.62574409489965    7.98688252924055    1.54680801072279
C         3.34628139862937    8.13906601691443    2.00120571374751
C         2.23403994655660    5.69277098933665    1.93976558854417
C         3.06110205589720    6.79754955189164    4.38979655160797
O        -0.32257168873531    5.61701487204452    4.37834685744571
O        -0.06228496314064    8.43002442206377    0.74652038466485
O         4.26080197595804    8.45784087813381    1.40432894227787
O         2.45302801223825    4.73446902611868    1.35859053096125
O         3.77242653178946    6.49444029319533    5.21964299494144
H         2.14283783187839    8.70969229505925    6.65580934648084
H         1.06485582301434   10.40904680340305    6.60455693324074
H        -2.72725023347413   10.35708519882374    2.57606571005294
H        -2.73537426191784   12.25352485267944    0.98353674174465
H        -0.68273786172861   13.57072269379544    0.63057131028682
H         1.39059051138150   12.99514176780157    1.81250920878519
H         5.44136484459469   13.36615427006107    2.97637516581686
H         4.24766980907347   13.90483695959595    4.15710336533715
H         4.63184747205307   15.67198060775704    2.50710629611735
H         4.23381295211014   14.59014584797776    1.17501799273100
H         2.98157725692324   15.07142235198167    2.32482048037977
H         3.46727234999857   12.42406781203015    0.76116303253636
H         3.11257661841834   10.90063723628857    1.58738249546172
H         5.25902576301073   10.66051148079514    0.52674008518747
H         5.87423024837406   12.16401704618458    1.20548056830446
H         5.55676443861207   10.77563937672381    2.26302180749706
H         1.62375614053138   13.77194848600425    4.05110838240638
H         2.12138728522329   14.57383048758902    5.55377945896547
H        -0.33005331212526   14.16246805503727    5.47654428160537
H        -0.04634687961708   12.42493938424432    5.32939417667834
H         0.40754427862721   13.27064279652011    6.81122087518769
H         3.59044200417630   11.39453244713641    6.78604046114546
H         2.47707038105999   12.61188113814588    7.42667360401268
H         4.79818297523680   13.23918800991588    7.93878239987430
H         5.24734477603735   13.11943388505521    6.23667162054750
H         4.15525806303971   14.40512660308800    6.78042085348824
H        -2.40162918649351    6.47235945587440    3.50473142019502
H        -1.74980744762509    7.94718049556165    2.78028557777497
H        -3.59696184395444    7.18739874027946    1.42550679714497
H        -4.67978332678339    7.06477754438363    2.80957161948885
H        -4.14313530447135    8.64957482655100    2.24555976546862
H        -4.73844412694235    7.68545688705929    5.00162274029242
H        -3.81501984589560    8.41225890637394    6.32543851883744
H        -4.07147112700311    6.06169787484480    6.81401393183395
H        -3.45423845525834    5.57965305361871    5.23660355228738
H        -2.37434642251669    6.34554376522500    6.40847307998013
H        -2.15386662883554   11.97171782686764    7.32985272938098
H        -0.91460682374604   10.71802074219302    7.41171320224227
H        -2.45314365124721   10.56343029247009    9.33566397938677
H        -3.82528595242154   10.31357935410998    8.25721170705271
H        -2.52634922949228    9.10893887784305    8.33907007576880
H        -4.35984197183110   10.98920056956947    6.15043187966011
H        -3.89049639606755   10.42074893331391    4.54348542847157
H        -4.31298241071872   12.82844324143401    4.47341949469193
H        -3.16043289632683   13.12945230330012    5.77076805382183
H        -2.59015409605834   12.54832347807669    4.20291536235167

