79
CSD_code = ZUSLUW | q = 0 | S = 0 | Stoichiometry = C37H35Cl2NOP2Ru | MND = 6
Ru        6.36760315271051    3.77867179133479    4.32670612879151
Cl        7.59091835876554    5.66272367922264    3.50684389304327
Cl        5.39893228603368    2.11182860350657    5.74987611249091
P         4.46742198123646    4.10502318417001    3.08483613593422
P         7.46845885528730    2.37398449693817    2.93729886508124
O         5.82454052722798    5.02685029359948    6.14507233703416
C         3.26356805800153    5.04559882954047   -0.70495676313566
H         2.35174251274002    4.98083284116761   -1.28141763139147
C         1.94573477732396    1.12231828150789    4.23381745112637
H         1.38336157014727    0.86472040667422    5.11951646536442
C         4.39720047434440    5.61948230963763   -1.26077768123574
H         4.36847891286626    5.99777219278131   -2.27247818400296
C         6.83719904297886    4.95473860028621    7.03842860930547
C         1.31054910392958    6.54366724292048    4.15281718145498
H         0.23367211814538    6.49752346089111    4.23007111549616
C         3.35583971116416    7.78528502995880    4.33630162408976
H         3.87632538353673    8.70611553965948    4.55512662680039
N         8.06174613005381    3.46950204922437    5.59906560981026
C         6.35068160762400   -1.97006680235491    1.92801028940288
H         6.09884417136337   -2.99474835073477    1.69595576959799
C         4.06653614563157    6.66607847457145    3.94674330770892
H         5.14646052475091    6.70365809415450    3.85720856563610
C         7.60497106656112    3.17992394669612   -1.03805155122409
H         6.98999351592929    2.95627594408034   -1.89753622412145
C         3.40246567945497    5.47288771008031    3.66518477304420
C         3.42690574329546    1.76036296320723    1.98121314180100
H         4.02485162888407    2.00322083745932    1.11303696021298
C         3.29259696148170    4.56525526596918    0.58940051548035
H         2.40328847422625    4.13096444564930    1.02501036680309
C         6.36425320713761    5.19632302556548    8.29286824052870
H         6.93312723512826    5.21097489317726    9.19993907795667
C         4.46757401847293    4.63661790760814    1.33494532863059
C         8.04277244406699    2.97237988065983    1.31972068068994
C         1.95968608856329    0.26418296618752    3.14613883342812
H         1.39910213418462   -0.65886728218453    3.17968747233802
C         1.97541614405843    7.72277314609459    4.44573253410189
H         1.41704439178812    8.59415265804948    4.75505724210889
C         7.79336149931937   -0.07489546052074    1.63897336620743
H         8.66096083321122    0.38309167081985    1.18343793986850
C         7.25208523133198    2.69610669166053    0.20631504354099
H         6.36182870575692    2.09315968859929    0.32875259029380
C         3.39296487843109    2.64150327991766    3.05782586675260
C         4.69953666449373    5.28781386600204    6.82841416921290
H         3.78165632055184    5.36314554208723    6.27749554181488
C         2.01649860928384    5.42064191493449    3.75596108499528
H         1.48894722323931    4.50639406446099    3.52362387669678
C         2.70377392111954    0.58275647513705    2.02198475108893
H         2.73112775630630   -0.09364189157662    1.17970877281464
C         7.46768043865901   -1.38565279991488    1.34938625990897
H         8.08585470759189   -1.95553154198769    0.67060470299907
C         8.18746362182551    4.62055060092962    6.49623596899970
H         8.56416369189240    5.46379308785018    5.89828782241346
H         8.88468662531102    4.42808613065259    7.32307010534730
C         5.56531585525798   -1.24209825545582    2.80402592239046
H         4.69829830193973   -1.69367597646982    3.26283269716306
C         4.97255375155540    5.41635412689930    8.15345584951997
H         4.27438482181683    5.63073456009153    8.93594937784763
C         6.99739910713330    0.66403083666676    2.51209976931657
C         9.17128614906332    3.77040164674080    1.17536167348924
H         9.77233409900351    4.02272563507425    2.03577999876598
C         5.55704754917040    5.71747363012021   -0.51376302208901
H         6.43919072436815    6.17617298990318   -0.93533434154982
C         9.51724125710692    4.25952132560081   -0.07186852731163
H        10.39475533665992    4.88047009801882   -0.17865611041040
C         2.66313594709357    2.30339811406643    4.19471483351142
H         2.67442304390637    2.96088558722714    5.05364567847263
C         9.29042091803388    3.15844150567404    4.87614853841847
H        10.10182621179902    2.89385753406007    5.57179163350105
H         9.57965094483446    4.06086654754780    4.32629426607462
C         5.59376474624927    5.22860322695768    0.78116039508493
H         6.49592675415973    5.31468377620751    1.36713457543501
C         5.88790516984059    0.07182893575381    3.09845542430459
H         5.28900208432208    0.63910715431113    3.79363004333788
C         9.02324775195527    2.01372723156772    3.90474790862351
H         8.82006368470653    1.09173404729243    4.46200873831194
H         9.87208670544294    1.84183191692897    3.23885294022678
C         8.74054173842449    3.96173483904784   -1.17885623861806
H         9.01568667992980    4.34472187281826   -2.15073723697851
H         7.76855579892194    2.64755721737845    6.14513412966671

