79
CSD_code = ZUSSUB | q = 0 | S = 0 | Stoichiometry = C69H9Co | MND = 9
Co        3.96425853117687    1.62635469093438   -0.04817663827415
C         4.92088031840570    0.14716307907683   -0.79370999794203
C         5.70661549342817   -0.57144294907599    0.07602854350840
C         5.50489074383318   -0.39036505619901    1.55701219272496
C         4.81089750472206    0.91605948109186    1.81350680745918
C         3.45287832977728    0.98488529899051    1.95585853274478
C         2.59429971469210   -0.24305277642313    1.86024032747551
C         3.32797718280415   -1.55490802076855    1.99386592595444
C         4.68721527282047   -1.62365774853032    1.85216804276706
C         5.32561852899079   -2.87295254406770    1.55161624522963
C         6.33911102276710   -2.92367734039530    0.51543313697840
C         6.41118203532692   -1.74679273539819   -0.32280728051432
C         6.64879926589877   -1.88888680005124   -1.68546810132678
C         6.96086293269617   -3.15527872508245   -2.27237732043026
C         6.96964953795200   -4.28024459854964   -1.46804442252423
C         6.64033500452088   -4.15949104558549   -0.06960656632681
C         5.93467541249644   -5.36161500964767    0.29395582946443
C         4.91110639918204   -5.29228407699961    1.22034073978141
C         4.59495223734739   -4.02925290697476    1.81943262062781
C         3.17100286334795   -3.95725333120896    1.96740590562056
C         2.52003331600354   -2.73107078515605    1.84343097180835
C         1.31585065056588   -2.66965117765832    1.03741981236035
C         0.77938511436795   -3.86299340957026    0.53909281520085
C         1.42090283498477   -5.13328516700651    0.76268339032391
C         2.61430288226716   -5.17610730562126    1.45886954236873
C         3.68845232299512   -6.01925252721284    1.00687810557255
C         3.53117933939055   -6.80157651852302   -0.12644193217905
C         2.28262335530464   -6.77222753157064   -0.84641083702791
C         1.24547686350091   -5.95922999419513   -0.40472562961366
C         0.46135545668289   -5.21344806483774   -1.35282320467789
C         0.73840013893066   -5.30492077504879   -2.71222924515780
C         1.82411566010552   -6.13493653808744   -3.16814421614144
C         2.58136322500503   -6.85423233548871   -2.25336543656288
C         4.01492027003543   -6.92683241035503   -2.40220048933905
C         4.63666166498481   -6.27734424495073   -3.46014697275017
C         3.84933984568711   -5.53112684642226   -4.41189612758020
C         2.47024549977279   -5.46129487886722   -4.26871828931108
C         1.78438862229321   -4.21479879338975   -4.49394330193453
C         2.50636231896685   -3.07778675887587   -4.83772304884162
C         3.93586367206670   -3.15018759592359   -4.98622423003381
C         4.59559362486773   -4.35718030030489   -4.78586738794089
C         5.84650805291172   -4.38246138550093   -4.07021443272835
C         5.87017159685916   -5.56477876448561   -3.24507822560968
C         6.42756322254039   -5.51546162928245   -1.97228133750013
C         5.78381626973298   -6.18889381221974   -0.87594197000042
C         4.60227844475544   -6.88965145354650   -1.08723794248451
C         0.71056519907193   -4.12236237394119   -3.53690141862454
C         0.40289158346929   -2.89681487348405   -2.96770178442201
C         1.15674838916323   -1.72124827371179   -3.31890162594148
C         2.19432787234136   -1.81020428512733   -4.22802864905634
C         3.42129201125547   -1.10442611966097   -3.96495648663599
C         3.58000994485689   -0.31387826540921   -2.82329042557436
C         2.46877900531561   -0.15439747230986   -1.91368853155290
C         1.31582204202391   -0.90805840600457   -2.14742571745310
C         0.66755840238060   -1.58621605977195   -1.06419508113614
C         0.11667947710899   -2.80879338424329   -1.56163320797237
C         0.16031314924733   -3.93557306150432   -0.76097364274586
C         1.19173277294882   -1.48283427762829    0.21955355633418
C         2.07718516744821   -0.38819694024571    0.45358073005949
C         2.73674770897555    0.25541488875260   -0.56642761014176
C         4.86455947403403   -0.27507207348519   -2.16270676661455
C         5.86353108171497   -1.13810115770503   -2.61988473540296
C         5.69685044486379   -1.95113568091690   -3.79045244003881
C         6.38526912827350   -3.19976128603970   -3.58895706387217
C         4.49141188185272   -1.92651849585160   -4.46671145377514
C         2.79881030646812    3.21826389576313   -0.90922893866906
C         3.90105439010249    2.81103152084833   -1.72015435814562
C         5.10713405267733    3.15434951563276   -1.04286924852896
C         4.74934189609189    3.62762131539096    0.21941865653517
C         3.32055637932597    3.67202410415627    0.30034684982656
H         6.46343613875576   -0.42907116692321    2.08507331305654
H         5.44171830811100    1.71388080318273    2.19150140431794
H         2.99766979279919    1.83788342254899    2.44840262217769
H         1.76499948123489   -0.19235166631900    2.57330575660953
H         1.76372496693241    3.22041112562312   -1.20787865567840
H         3.83227011749192    2.51277616728603   -2.75540756065523
H         6.10091242445360    3.10291261557239   -1.45535135960951
H         5.42122854012474    4.03442261439347    0.95920025375702
H         2.76030587131915    4.11574745009809    1.10830871635553

