38
CSD_code = ZUTFID | q = 0 | S = 0 | Stoichiometry = C16H15NO5W | MND = 6
W         7.93966096814278    8.06528932736234    3.43171865298639
C         7.94426375905782    6.08961160399057    3.62416669354273
O         7.94475954424070    4.95065472528555    3.72774947782594
C         6.52153271120157    7.92231992181304    2.02602552851833
O         5.71203311826835    7.80396082142290    1.23078771635337
C         6.52722943796044    8.19923627405550    4.84462382416338
O         5.72458988162728    8.22929692998450    5.65452952441606
N         7.93628606407650   10.13491889713502    3.21006571908673
C         7.93727447280535   11.27091321181511    3.03060170860297
C         7.93830819445629   12.69099576930238    2.78571537533611
C         7.94023775694948   12.93553621121296    1.26650535879735
C         7.94210123272304   14.44125197850574    1.00571109519466
C         6.69269141336781   15.06955886087958    1.62209721446318
C         6.69241637360694   14.82563559411065    3.13087160655594
C         7.93991397539076   15.45273166023880    3.75245097961019
C         6.68155785842279   13.32259073564260    3.40780059627500
H         8.82393818830654   12.47406761710907    0.81989110168107
H         7.94353109441021   14.61355064261252   -0.07572517390772
H         5.79646990459159   14.63519003562540    1.17352759329677
H         6.68036529441317   16.14241515571465    1.42080420412481
H         5.79722286377336   15.27424698871687    3.57425931767990
H         7.94119075979914   16.52948606400998    3.57275320213351
H         7.93855342410800   15.29447976431312    4.83322993015996
H         5.78733352165327   12.86626782175380    2.97719472026372
H         6.66981207111015   13.13761715156279    4.48433406299947
C         9.35310388388630    7.92692076778501    2.02114859597094
O        10.15971727248097    7.81155953309079    1.22255087485706
C         9.35783212012106    8.20338723206023    4.83862585503907
O        10.16273854516936    8.23599879830301    5.64629031144671
C         9.18760318332945   14.82318307639372    3.13375099834362
C         9.19135672834858   15.06701994624785    1.62497406722437
H        10.08770830295249   14.63078708075628    1.17845198979881
H         9.20635431038078   16.13983257436631    1.42366531629196
C         9.19491829374687   13.32013943218717    3.41069130227070
H        10.08921537540565   12.86197417744137    2.98217156734363
H         9.20379562086252   13.13519370506478    4.48725221937371
H        10.08268372655905   15.26999096040837    3.57914825432424
H         7.05659875229438   12.47588895172184    0.81788861755597

