32
CSD_code = ZUTKEE | q = 0 | S = 0 | Stoichiometry = C11H17ClN2Pd | MND = 4
Pd        4.84440149696943   17.22312476850929    1.03287657662770
Cl        3.60918946258947   16.90108595375247   -0.75566465087155
C         4.48297316053323   19.33977365657538    3.06666795330663
C         4.29018469001149   20.55046450740302    3.73566479643536
C         3.29095282636743   21.39819657330148    3.29970816045090
C         2.50314271644333   21.00179459712492    2.23139607492039
C         2.73099264250455   19.76971105356342    1.61872131900961
C         5.49000477069991   18.39911248422213    3.49766550396042
C         6.65700578132138   16.33052094710966    3.26916015071536
C         5.73048300519066   15.11806604728156    3.45260110756861
C         7.42355337139641   16.62261217845402    4.55936947546742
C         1.87427176017310   19.30283658882162    0.49518162754183
C         6.31361764755662   16.14459556265571    0.06846853217847
N         3.71123377027369   18.96258369932204    2.02645297981819
N         5.82164283908945   17.40179558182091    2.75745072456572
H         4.92511990652206   20.81145085904523    4.56808668702767
H         3.12190015616692   22.34726627142103    3.78612579193751
H         1.70590496172703   21.63419722467249    1.87367978108503
H         5.91509981490660   18.56246062261479    4.48521852517066
H         7.38514549615371   16.09536663337439    2.48406293957818
H         5.07598357793284   15.27595688325786    4.30842073823702
H         5.10930507432882   14.98692702233846    2.55605308036240
H         6.31396698843570   14.21632376155971    3.61637262130378
H         8.03015878303795   17.52038412160435    4.45792449803875
H         6.75466272823811   16.73352943240349    5.41036288668176
H         8.08744117642614   15.78680874659664    4.76394370747622
H         2.47603468077275   19.20640322507959   -0.41102525735383
H         1.48945879991944   18.30600883514766    0.71153324672725
H         1.04913879186998   19.98577573727621    0.31493392453616
H         7.27023920123587   16.64940422099646    0.26758428477164
H         6.35992345662653   15.10612552171079    0.41520680904683
H         6.14466646457647   16.13533668098269   -1.01040459631407

