83
CSD_code = ZUTNEH | q = 1 | S = 0 | Stoichiometry = C44H32MnN4O2(1+) | MND = 6
Mn        7.25348652847130    7.27975740711702    6.40617901250406
O         7.28700221384720    7.29317579350623    8.63387251591198
N         8.10705602530933    5.50340808720704    6.41613473228263
C         7.53285842799125    4.31926575954406    6.80832970958703
C         8.53100890498409    3.29305021685259    6.87361868022064
C         9.69073139007146    3.84402609367187    6.43937450984550
C         9.42090703899146    5.22441870124561    6.16543755277120
C         6.15772272149066    4.10735225696975    6.93290471619805
C         5.65699947769288    2.75666296814083    7.24633179375888
C         4.83319088705728    2.57295340143575    8.35535088113101
C         4.35815133148883    1.31436462662496    8.67312122286266
C         4.68320000321425    0.22687182664203    7.87886579439399
C         5.48532595075736    0.40426077499270    6.76364357596416
C         5.97259866334690    1.65956906799718    6.44884706276308
H         7.62947128774453    6.50269006720501    9.07164729688519
H         8.36235548542159    2.28841410636140    7.20518311323071
H        10.65035684591457    3.37626161840403    6.34724027043554
H         4.58052831475161    3.42121498475647    8.97522741028569
H         3.73028409242251    1.18250913089841    9.54112834340444
H         4.30739093233683   -0.75412775775575    8.12471021594639
H         5.73046550092419   -0.43772079505936    6.13437858131792
H         6.57890286927665    1.80006160917662    5.56602792530258
H         6.46942688730302    7.54262571094575    9.08292944087703
O         7.21334689943432    7.29432718901622    4.17841715891114
H         7.12201114250805    6.44432134550283    3.72881408768002
H         7.91603818221753    7.78489803432886    3.73278324339804
C        10.41105903936328    6.16975131421309    5.86691379664130
C        10.20247322243895    7.54561867839672    5.98291337465377
N         9.01929462699792    8.12260057505945    6.36548196276167
N         5.48565685968022    6.41362196697539    6.41121205307938
C         4.30462848919365    6.99136469779079    6.02399562224923
C         3.27705016588863    5.99425515022015    5.95114142608827
C         3.82743350975182    4.82954288814550    6.37222093416378
C         5.20883966716508    5.09763965259989    6.64563716783458
H         3.36041513130129    3.86852009344474    6.45428765550724
H         2.27247614944569    6.16668316394922    5.62126672723484
C         4.09455149555183    8.36707508346362    5.90520465465158
C         5.08568058178409    9.31472840164420    6.19205024213701
N         6.39826549297941    9.03816633116458    6.43257253397482
C         6.97851232212307   10.21837976891462    6.81094077656689
C         5.98325397206673   11.24931557592117    6.88100578326128
C         4.81874427663540   10.69854253088808    6.46116012844848
H         3.85865487596340   11.16687303780132    6.37515165191612
H         6.15816946578630   12.25525587972427    7.20559599800059
C         8.35526547419179   10.42423752199680    6.92174934384563
C         9.29853717204522    9.43277586877416    6.62294101313309
C        10.68172027927226    9.70103304221748    6.35436976124287
C        11.23268569142379    8.54148807049406    5.92129018153355
H        12.23870025486704    8.36985904795084    5.59520622035352
H        11.15096059591066   10.65959323843994    6.45088478780493
C         8.86200008903806   11.77303348417403    7.23245331586762
C         9.68276182227043   11.95589867452810    8.34379372177669
C        10.16170473118707   13.21393713119948    8.65828152443077
C         9.84489816510902   14.29989916211555    7.85836070328579
C         9.04501453715081   14.12255076407881    6.74145921189603
C         8.55236943054432   12.86838978473810    6.43017200322289
H         7.94666865513742   12.72698047292281    5.54701757835313
H         8.80551319143074   14.96347729138716    6.10851089285410
H        10.22480500722137   15.28008455957718    8.10147173843959
H        10.78651893572430   13.34676415244308    9.52838979899844
H         9.92565068515377   11.10794024139878    8.96738485797938
C         2.74501956054511    8.86949435010665    5.59258928170370
C         2.56429161536972    9.69191271321682    4.48193090134394
C         1.30661256436443   10.16864072537344    4.16322665747605
C         0.21818868506025    9.84819490937903    4.95834444684961
C         0.39296985590109    9.04693570213538    6.07464504738688
C         1.64697701632811    8.55656380334759    6.39002475441441
H         1.78546934163179    7.95024419909918    7.27331134367670
H        -0.44989759391442    8.80480111625294    6.70398840162419
H        -0.76185739434055   10.22637934530622    4.71207901144775
H         1.17588707366737   10.79462354785682    3.29366826151808
H         3.41409954301118    9.93725486527966    3.86191324588759
C        11.76218574583697    5.66511303959974    5.55992426354602
C        11.95274080439810    4.84308887405964    4.45099896357015
C        13.21296815669518    4.36555463531567    4.14303797892884
C        14.29447054752554    4.68644874841605    4.94709521355423
C        14.10981363418262    5.48736024299277    6.06204423048998
C        12.85310772954110    5.97727988261545    6.36709698909668
H        12.70574410085311    6.58315786227321    7.24899696751991
H        14.94709372204198    5.72961384456679    6.69867356236617
H        15.27652960908745    4.30842288633595    4.70890476651748
H        13.35069759355510    3.73890708855765    3.27501755217500
H        11.10913602189344    4.59351809343546    3.82350016685295

