69
CSD_code = ZUTVUH | q = 1 | S = 0 | Stoichiometry = C25H32CoN8O3(1+) | MND = 6
Co        2.14655906099034    6.41904177633432    3.58270991717006
N         4.87272171678946    7.28445028265271    3.93492429911261
N         3.92906688829184    6.41563544795438    4.03053578244086
N         2.23854704219398    4.38377769802493    4.12900394297322
N         2.63105246989991    6.13111723656244    1.69272770861465
N         5.83711765638316    6.92051851866184    4.73974121463725
N         0.26907320863461    6.32433116682733    3.30132354018151
N        -0.52457879844029    5.65026507977512    4.16328923368075
C         2.88857361644373    5.02264771686268   -0.23030817579296
C        -1.86253662234501    6.73978529589606    2.81721780190010
H        -2.73376557814697    7.13913775669498    2.34177679792986
C         3.20969311625023    6.95861344845525    0.82021618306208
N         2.44621271659801    4.95574750319769    1.04640268612163
C        -1.82597027165368    5.88358165117550    3.89908461738891
C         5.51914447227917    5.77413427504015    5.38097164240018
H         6.16124266492013    5.30634185704069    6.09636146243847
C         2.72762661437701    3.54782737776665    3.02124740367403
H         2.66204286535944    2.48669823085117    3.29617076001104
H         3.77852833555370    3.78624624356991    2.83670663091684
C        -0.53350804140275    7.00280460738636    2.47709834531189
C         4.26922317337627    5.44667736724225    4.90852446812747
C         3.63724243537941    8.34984997786007    1.09173235181146
H         3.15802149142649    9.02356030239347    0.38424989380035
H         4.71307885319902    8.43038961737766    0.94863659726060
H         3.38759928653759    8.65010956762453    2.10150007923545
C        -0.05242032945454    7.88017069268619    1.38336644423773
H         0.75728803374250    8.50639486830038    1.74840678277799
H        -0.86971170335915    8.50567383182199    1.03659991318928
H         0.31447767773032    7.29147956979014    0.54359211613682
C         6.94558350463228    7.80471269012720    4.98930528162158
H         7.10369139320388    8.38831699684583    4.07894795628525
H         7.83736317649713    7.21687325717973    5.21393313636577
C         2.81345293397190    3.89376777272735   -1.18916761766664
H         3.42455079154443    3.05302717662534   -0.86097389977966
H         3.18257558495497    4.22372320869100   -2.15554683498014
H         1.78742144340617    3.54965281862205   -1.31240590130172
C         0.01711770713046    4.83111897877334    5.21690767698416
H        -0.81057510712605    4.31769103238086    5.70661997530442
H         0.52223818957116    5.47463271874660    5.94307007066648
C         3.24864824564117    4.40712735007811    5.21154049936610
H         2.74942691673366    4.70441190450265    6.13829180554779
H         3.69948864266392    3.41675060425633    5.35467705544247
C         0.98527903229025    3.79345720189172    4.64900902423360
H         1.22048870137507    3.05796160539784    5.42631397377210
H         0.47566860817795    3.26524857527239    3.84002920563776
C         1.94423041852746    3.79696912925114    1.72773252288268
H         2.05814827754328    2.94092101706020    1.06130172662500
H         0.87755090523831    3.93223131841301    1.93621643782295
C        -2.94451804560330    5.29792687484080    4.67664928792470
H        -2.89960165933840    5.61560260618553    5.71755187551715
H        -2.92726924852580    4.20867030502569    4.64494448572170
H        -3.88647878028028    5.63742159814044    4.25644648401235
C         3.37748826616297    6.29619621366830   -0.40410502901658
H         3.80516075239585    6.70773842091597   -1.29416521674262
O         2.06914867207447    8.23739470736606    3.63829917468387
O         1.84453249977436    6.96783581138423    5.30073368282775
O         1.88063203006923    9.18681072516753    5.67425415697631
C         7.41259780468341    8.80619717881292    7.25913586478325
H         8.32955672995499    8.23587588684951    7.30212026054001
C         5.41394891710209    9.45652742431059    6.09600548021203
H         4.76477923994373    9.39169403003287    5.23464480592775
C         7.06312116697878    9.63574458515002    8.31152511095059
H         7.71099287211161    9.70713243278131    9.17176710124587
C         6.59021530893618    8.71897383097112    6.14578386495727
C         5.05842463123185   10.27044071533401    7.15591538470259
H         4.13118911141828   10.81861983403293    7.10925179417804
C         5.88477738276752   10.36149546441145    8.26408389263576
H         5.61103781311756   10.99785808882891    9.09136618639461
C         1.91997311746630    8.23633894310003    4.94527881598448

