53
CSD_code = ZUTVOB | q = 1 | S = 0 | Stoichiometry = C19H21CoN9O3(1+) | MND = 6
Co        5.96698131752798    8.47460080290909    3.07444366566609
O         4.35274803316811    9.03012069271917    2.46610187612597
O         4.81036296364799    7.06329776279823    3.06290014593597
O         2.69821711835841    7.49127217707561    2.40031338071895
N         6.94703495099778    6.79564507229423    1.02609899957215
N         6.48048339458231    8.01172360072435    1.32920556868219
N         5.48256694453502    8.73146287782709    4.83137406187190
N         3.82299222571631    9.21152147779694    8.85331654967885
N         4.53927680659131    9.05539323672873    6.67355925348343
N         4.62789978110052    9.47618046165958    5.43187230481406
N         6.87791374459469   10.16572746340287    3.01826900138774
N         8.17677602730986   10.41760745631285    3.21666976553368
N         7.60533841161525    7.43273678694329    3.93589906235444
C         5.98369977094701    7.79957300040052    5.68107981756635
C         3.82285637574925    7.83102029637598    2.61587704280894
C         2.04343512064064   10.65442966690947    9.49822379245874
H         1.41310199663932   11.03452433186912   10.28541989065723
C         3.02411008699775    9.71188535440934    9.77857634957675
H         3.18245997761261    9.33672265259361   10.77951213265519
C         7.06544623736188    6.65714675652781   -0.30287096659548
H         7.42170134926979    5.75096900823015   -0.74960771457258
C         5.37316570540762    8.00755345091892    6.89171431466334
H         5.43921133709049    7.52666193129196    7.84405485913935
C         3.66549828741412    9.63612463672594    7.61014702408679
C         2.72272034133174   10.57165940639782    7.20609887260123
H         2.64915280770348   10.85892983182973    6.17042900321221
C         7.19949808557980   12.36993204123798    3.00709425571944
H         7.01434580200878   13.42149534453813    2.94718513293079
C         6.65284729005367    7.83753907711390   -0.88276638103620
H         6.61129882503726    8.07206036729524   -1.92529156485479
C         9.12935689242922    9.35096131600654    3.36421875979349
H         9.27963658034830    8.86798477260968    2.39210093662853
H        10.07898955171434    9.78902153946493    3.67815352954431
C         1.89289606711074   11.08901042503410    8.18920146825572
H         1.13816056851420   11.81647329857587    7.93385015690857
C         8.19674589238769    6.37685921209054    3.08738165708118
H         9.05823020157311    6.78844130892605    2.55624205153727
H         8.55476460159423    5.55454874545030    3.71735150976133
C         7.22053006592934    5.81872760443173    2.04796094445083
H         6.27337612353799    5.53644731907788    2.51946781341618
H         7.65979106235742    4.94148489761862    1.57044441507081
C         6.26880808631616   11.33731503045665    2.89314658713141
H         5.20912342204481   11.37529439362000    2.73254901370029
C         8.40738181913362   11.74316923605835    3.21353387174004
H         9.38935828067014   12.14805522636299    3.35231700426364
C         6.94743397600248    6.81771882375513    5.11252220693629
H         6.37399470592779    5.95055506253125    4.77273907132118
H         7.68403744461723    6.48865960788328    5.85586347677317
C         6.28905538581607    8.65605546277502    0.18342832208534
H         5.89627106720693    9.65357909064341    0.17311756438088
C         8.67120146615703    8.33410983006729    4.41477798914396
H         8.29483130824189    8.88737055938662    5.27922157648061
H         9.53628431378013    7.74264021331880    4.74161057675374

