23
CSD_code = ZUTWES | q = 0 | S = 0 | Stoichiometry = C4H12Cl2O2PtS2 | MND = 4
Pt        3.58114239572868    0.23920912017843    1.45545470232881
Cl        4.32624940934901   -1.71908225701327    0.64009424206826
Cl        1.63328728474620    0.07748152410983    0.34208568820857
S         5.48808353101748    0.42190983210380    2.71405016317713
S         2.93972161474380    2.29072674869067    2.24958286145141
O         5.14937340575933    0.87795480940513    4.05522828458640
O         4.06047073871487    3.21948377908449    2.20206025268919
C         6.54650795286075   -1.04428921567293    2.90540111107696
H         5.94368700388180   -1.82897498214964    3.34883290021920
H         7.37253896258698   -0.78696961783631    3.55790521527453
H         6.88075324101574   -1.35296707651378    1.92263637412752
C         6.71399685596661    1.57332318004625    2.03317116403326
H         7.02316045933414    1.19476033491052    1.06600033415399
H         7.54919432376532    1.64861707110338    2.71941033837910
H         6.22045548439384    2.53554158660908    1.93297628418649
C         1.52160103867806    3.12610235440842    1.47628002290149
H         1.76917313041802    3.30037875113954    0.43478274426740
H         1.35577883899059    4.06672227728552    1.98839165539090
H         0.66473334753602    2.46694947581741    1.54315589191237
C         2.33796089314783    2.23221360061168    3.95948847012260
H         1.46758640716537    1.58652414458347    3.97953911261422
H         2.09907788768949    3.23614867352891    4.28947672273046
H         3.14136579250631    1.81833588557518    4.56199546410538

