29
CSD_code = ZUVDUR | q = 0 | S = 0 | Stoichiometry = C10H8N8O2W | MND = 6
C         2.19253209243669    5.18045270385281    1.51917075144389
H         1.39888197185066    4.52407737571203    1.17406677739036
C         2.09971168567501    6.56196880394370    1.45029277293759
H         1.21911893285067    7.02682439935383    1.03769065895380
C         3.15375315476638    7.32427138078821    1.93249670322602
H         3.10925934462031    8.40247201886545    1.91087418843347
C         4.26718386551550    6.68355148735616    2.44933207828261
H         5.08963911033121    7.25636791216188    2.84416486758511
C         4.29199930617045    5.29118357149261    2.47474282729971
C         5.41538971136665    4.49568004872866    3.00575645145351
C         6.66902190233738    5.01966733585922    3.30851740221509
H         6.88005848493902    6.06554892870912    3.15870661388295
C         7.65144682239070    4.17125735754373    3.79255478256863
H         8.63176060207950    4.55576560171148    4.02936877863371
C         7.35770663584270    2.82722884235424    3.96467029613027
H         8.09606285406724    2.13772549220813    4.33970303153352
C         6.08756340123511    2.37851946666267    3.63708232446752
H         5.79082251196828    1.33915953384121    3.74552129794702
N         2.59819336335606    3.13404371534734    4.23693832265269
N         2.91748597416224    4.06749108081967    4.87593426149769
N         3.21873284140044    4.97697800010519    5.48151688643350
N         4.18045801176341    2.24792676373893    0.78807097095882
N         5.28386681083106    1.94896549075929    0.49747944836277
N         6.34396265064694    1.73666788383704    0.16746036829186
N         3.25676456900581    4.55987482749488    2.02169856190673
N         5.14268335697779    3.18759170849539    3.16633188024859
O         1.47856995603526    2.16905881502907    1.77531239082921
O         3.58373183691884    0.68911592421300    3.05876024521947
W         3.02723823846184    2.17786352901806    2.46718405921121

