102
CSD_code = ZUVGAY | q = 0 | S = 0 | Stoichiometry = C46H42NO10P2Rh | MND = 4
Rh        9.05145701417144    4.85968497595065    6.10956209040614
P         8.10211662107738    4.83957464874617    8.11566179151161
P         7.60330432760684    6.44988152313638    5.57081387060914
O        10.30135679256374    3.30563446419016    6.59712239165475
O         9.97010271038604    4.98381842703306    4.28466107034459
O        13.75118447639031   -0.36777744593089    6.04317493163329
O        13.10246569873011    2.30281780148802    2.93614635278229
O         8.57392985074616    6.02282361371153    9.10641891860749
O         8.34193689337365    3.59532289993134    9.13454026461471
O         6.50344035695046    5.04595077107757    8.13727024347406
O         7.80398638089606    7.37714883505215    4.25110014690875
O         7.30597961526294    7.51700375962436    6.74316301761572
O         6.11014215841911    5.94423855182335    5.23368607017445
N        12.78674976052141    1.37801711621178    5.02578808627257
C        11.96419778163960    1.61766325608348    6.19046735560562
C        11.12994031250043    2.81570764616928    5.80529830993533
C        11.48874491340357    3.19682778897942    4.49601734499373
C        12.52812720722602    2.30464103328855    4.00486886791956
C        13.68235068396126    0.32602925269978    5.05313820896059
C        14.52059076908482    0.11862658807762    3.82866617731548
C        10.89170604785976    4.28563185646486    3.80658926825903
C        11.34118114470088    4.63967373585517    2.40780218654732
C        10.17590933052485    4.47161929279247    1.42611178311250
C         9.73323424556371    3.01656611513486    1.33640043256430
C         9.69833085797629    6.74649342572553    8.76346040903256
C        10.83938764212191    6.11504484972205    8.27933953548577
C        11.94470524476378    6.87431802819475    7.92614378020821
C        11.91613719928417    8.25247713206803    8.05683666691199
C        10.78552776820522    8.87285912111523    8.56155931765285
C         9.67440189484129    8.12564574794093    8.91331480577714
C         8.50421698064349    2.32907388287405    8.62355838965357
C         9.37536345489415    1.46570619158620    9.27375851761120
C         9.57358567964891    0.19085127235522    8.77519369235698
C         8.91202776427681   -0.22195600259925    7.62993554034369
C         8.03592860051354    0.63997774391199    6.99204641224035
C         7.82337408214934    1.91472565729811    7.48757535963271
C         5.70851012314307    5.47110649326268    9.18301137405482
C         4.49347136899477    6.05629096910596    8.84739672851305
C         3.64224281467209    6.49443935784019    9.84437922448278
C         3.99806832604355    6.35624713524275   11.17564288716917
C         5.20966574417684    5.77347385802363   11.50416881552928
C         6.06778682116274    5.32682286514358   10.51347990441051
C         9.06407001399236    7.75550544112884    3.85608005786977
C        10.09438475506952    7.93014541264512    4.76875806757231
C        11.34939567399322    8.29928323601535    4.31768304701517
C        11.57567711128806    8.50776255119920    2.96754092421392
C        10.53814479124823    8.35033387472943    2.06314793756119
C         9.28233866076259    7.97163855646009    2.50180285362836
C         6.19743906134754    8.32311338723367    6.90725173733787
C         5.40574664917555    8.74403312720470    5.85064903453546
C         4.31499510155786    9.56033064804926    6.09823580541278
C         4.01465316817794    9.96164119083761    7.38832565579395
C         4.81148097097069    9.54142552966680    8.44019623283865
C         5.89958103834033    8.72213055248842    8.20475255694327
C         5.90430082168811    4.60057781795511    4.99767435203983
C         4.78097254562732    3.99718301415923    5.54531736932995
C         4.55115660473017    2.64964000598685    5.32798666491689
C         5.43665439893265    1.90192463664559    4.56986087536354
C         6.54724519151360    2.51028626554402    4.01003955197388
C         6.78784915422576    3.85951821986293    4.22041602159438
H        11.33369383676503    0.75231809233006    6.41984752037868
H        12.58052293271211    1.81563588189679    7.07316064062849
H        15.17708276181322   -0.73168559552228    3.99227728903850
H        13.88423624392280   -0.05851336593466    2.96513264760565
H        15.10532951027846    1.01085408401305    3.61912746247818
H        11.64965376197252    5.68790608945703    2.41646085958070
H        12.17842686358457    4.01345552006874    2.10950912989942
H         9.34291682577212    5.09713885675396    1.75489553081885
H        10.49171477578289    4.82083638068219    0.44133203815456
H         9.38343005976117    2.66631139933223    2.30559599902880
H         8.92660316942487    2.90235104352169    0.61525644528927
H        10.56672943392348    2.38833582839328    1.03071609798088
H        10.87649657677735    5.03407606818194    8.25125634454626
H        12.82965082091282    6.38182178751574    7.55183337858381
H        12.77690326828135    8.84215864163264    7.77941315341780
H        10.76194947460615    9.94593062360377    8.67644256519028
H         8.78781261853090    8.60269932371596    9.29845242580267
H         9.89578083961499    1.80773738757685   10.15478840008384
H        10.25843842200181   -0.47753238940887    9.27479476995003
H         9.08001867760271   -1.21369227456279    7.23736000744642
H         7.51303525120748    0.32587826173490    6.10140762096254
H         7.12966561795688    2.59174385673438    7.00537937884054
H         4.23933746198674    6.17762646740929    7.80646701151493
H         2.70187036686888    6.95233778183002    9.57691770531936
H         3.33417885041185    6.70250346527229   11.95324191480018
H         5.49378110571236    5.66328279511028   12.54009855807188
H         7.01339852286500    4.87244321803571   10.76253355923180
H         9.90410699939122    7.77861445532857    5.82379849232188
H        12.15118106895018    8.42191095575362    5.02976479748912
H        12.55747133110524    8.79222448328873    2.61993102781580
H        10.70835977085736    8.51206428261391    1.00927480119635
H         8.46723796095719    7.83383625098362    1.80819412510046
H         5.64497111964129    8.42747418093870    4.84802652396677
H         3.69723180165010    9.88340885291793    5.27357718328815
H         3.16249203678429   10.59777083553035    7.57399800273360
H         4.58294244525032    9.84375094845904    9.45106166152301
H         6.51507824548440    8.36881034042823    9.01662101491203
H         4.09963132993915    4.58548876097900    6.13833273758163
H         3.67827685576152    2.18304481804820    5.75878959985576
H         5.25298614420209    0.85068517054831    4.40633975021685
H         7.22925557050688    1.93684615649241    3.40024089089569
H         7.61496609478225    4.35851257412988    3.73316164764517

