79
CSD_code = ZUVREN | q = 0 | S = 0 | Stoichiometry = C33H19AgBF18N6P | MND = 4
Ag        1.86912605219309    3.88443921126314    2.31939577086887
P         4.15481775673465    4.20353664257131    3.18582776984585
N        -1.24494656522451    4.44929280008377    2.20948899092116
N        -0.16466697076777    5.12200623473727    2.55679291208990
N        -0.64318202825396    2.13420833984560    1.56207554423346
N         0.27693163113349    2.11215140436463    2.50726595931147
N        -0.25363803656613    4.00440491542186   -0.01681256278753
N         1.04603587057455    3.79185699452292    0.06419965680205
C        -0.48755193587559    5.88419337700871    3.59804498537403
C        -1.82721922484652    5.70162131838995    3.94533497826336
C        -2.27008798299068    4.76739280653496    3.02555545075796
C         0.53365144198161    6.76936724143478    4.21973174187766
C        -3.61275970033704    4.12184312644461    2.94469454387550
C         0.57741778312939    0.83733875055530    2.74089113340074
C        -0.17087614579169   -0.00417932518547    1.91589306413753
C        -0.93771351903255    0.87686990156802    1.17393665251598
C         1.58730743869276    0.48483755099425    3.77482431766444
C        -1.88447861801826    0.56224719777353    0.06465139644142
C         1.61203390668873    4.38654650780890   -0.98299725188749
C         0.64803079088887    5.01403235280178   -1.77397366707967
C        -0.53490480055237    4.74284696843166   -1.10942941913798
C         3.08480644456772    4.31409595165546   -1.18030465889787
C        -1.90792346514992    5.22254838707667   -1.44163853003390
C         4.30244947465366    4.49159079536260    4.97795212563162
C         3.38852658426573    3.84432992524231    5.80327514805545
C         3.46155766204119    3.99430323980731    7.17491604694253
C         4.44250603105883    4.80083344224432    7.73032161482108
C         5.34578536291174    5.45817053597272    6.91152920906194
C         5.28013344814968    5.30696212665733    5.53732982575461
C         5.07885247450687    5.60770526342347    2.48457192602828
C         4.35440695542351    6.76472687075223    2.21486060359250
C         4.98860095345111    7.87998071593747    1.70225094492346
C         6.35008972144095    7.84244179349702    1.44453346940851
C         7.07209287453668    6.68810171199058    1.69801078759779
C         6.44233991953955    5.56999480176904    2.21710846014984
C         5.28032357282290    2.79829747784704    2.91315695339609
C         6.31790132331501    2.47625332238866    3.78111301920520
C         7.14759947440219    1.40638608791143    3.49390694947515
C         6.94888804909176    0.65668575837226    2.34620393751567
C         5.91002170185338    0.96979228001290    1.48380601135605
C         5.07542463085341    2.03341496381991    1.76943352583662
F         1.66907355615270    6.09699944823754    4.50229268760864
F         0.11372345152522    7.31660108573688    5.36209800840172
F         0.90213758724774    7.78021516645351    3.41531318795316
F        -4.38636111023237    4.49383877819433    3.97121037116792
F        -4.28401870611947    4.41803409449133    1.82804050704383
F        -3.52017048991106    2.78031795113816    2.99964799208780
F         2.73264323333356    1.17907819006093    3.61108671839097
F         1.17066771616854    0.76234220894089    5.02121428804122
F         1.91372418653605   -0.80920782457083    3.75422069626780
F        -3.15594923568148    0.86538246569523    0.34207220629542
F        -1.85459787315668   -0.74135442561852   -0.23602334573501
F        -1.56301313478891    1.22406061977201   -1.06228290762881
F         3.50909284600490    3.06928920971688   -1.45371739321909
F         3.75681474588071    4.69322697624316   -0.07354831947401
F         3.50863662150129    5.09549879228048   -2.17595902503238
F        -2.46593199816121    5.87705110456413   -0.40630162951331
F        -1.88132333158431    6.08158059006924   -2.46721358728340
F        -2.75145885550621    4.24303285738955   -1.78019640164123
B        -1.23225759955515    3.45474720402833    1.03579431691848
H        -2.37878928297741    6.16697738499261    4.73487810793889
H        -0.15307855161215   -1.07248172870322    1.86488204494987
H         0.78892959620507    5.57394029673382   -2.67442297289061
H         2.61627806669839    3.23012320034620    5.35574244525547
H         2.75149874407650    3.48814465188725    7.81168153915293
H         4.49800908944830    4.92339751470361    8.80168689838041
H         6.10453873313055    6.09339006122413    7.34463090337016
H         5.98161375994974    5.82708453565035    4.90003171466234
H         3.28779301333522    6.77597219054339    2.40466685034108
H         4.42219930451479    8.77612069423084    1.49731114422297
H         6.84675925654442    8.71080950746654    1.03811880415894
H         8.13125881113161    6.65661107026126    1.48840098830237
H         7.00752244052619    4.66843301708864    2.40674205584838
H         6.47067632604564    3.05513325071492    4.68115110552189
H         7.95175479440069    1.15578337293451    4.17017434764846
H         7.59909458434222   -0.17723772609038    2.12787671473290
H         5.74880400514018    0.38176803000110    0.59277036997178
H         4.24869243220151    2.27788472760500    1.11206020903947
H        -2.30749707025482    3.29994168644946    0.58743902143119

