75
CSD_code = ZUVROX | q = 0 | S = 0 | Stoichiometry = C32H35O6PRu | MND = 9
Ru        3.68795776016669    1.25150649887665    0.04677941435827
P         2.90371061287134    3.37680533460983    0.05671350392595
O         5.47378162091955    2.21651638436453   -0.44086847080500
O         3.27641040309987    6.34385183456119   -0.12283625261659
O         4.05733536228800    1.79410751797363    2.04958477385797
O         1.15354189354352    5.46370881552891    1.56330742453000
O         2.70785065353023    4.97604418495496   -2.53707938226546
O         0.39264599581885    2.59149503778440    0.66715719789978
C         3.00641789835510   -0.77977166397917    0.85447012352561
C         1.93944667358983   -0.22205744932380    0.12605563224727
C         2.14645767174225    0.23894188719219   -1.19909265861241
C         3.38904625223490    0.05085044724886   -1.85794390447767
C         4.43607518365489   -0.55438784082075   -1.12099985299327
C         4.26013843746464   -0.95614152321797    0.21082091268856
C         2.83386619962558   -1.20129655431909    2.28207086593034
C         3.57688687682966    0.42215376871572   -3.31104336656015
C         2.73764619319915   -0.49505686422307   -4.20668823873033
C         3.23367891224110    1.89316783961936   -3.55306249363032
C         4.39146830514453    4.31765264303400   -0.32708443974177
C         5.53779199293190    3.50622202522885   -0.47665012644365
C         6.76467688978857    4.16748080135365   -0.70663436153298
C         6.81422884294835    5.53884291088580   -0.74797211976476
C         5.68226352237344    6.32900334257548   -0.56314746433854
C         4.46303914569428    5.71088006543937   -0.33877858645108
C         3.25699051844956    7.74576426225374   -0.13458928086869
C         2.68256821250173    3.71020208724711    1.81714414084599
C         3.45942632878474    2.80936559575458    2.58387554434335
C         3.52633316850764    3.03648046720549    3.97439822710649
C         2.82109371872762    4.07188188301690    4.53832569529326
C         2.01223012567072    4.91270314568593    3.78141437538796
C         1.94057470067680    4.73226801183213    2.40694346647503
C         0.44379269802242    6.55319694731583    2.08785919502254
C         1.46203712994031    3.92829000782290   -0.86986113928157
C         0.24667085150580    3.46930924967104   -0.35656718935602
C        -0.95465440447134    3.88365999654161   -0.91282993647426
C        -0.91858156045510    4.72093828244212   -2.01556895511333
C         0.27743652210575    5.11463203849380   -2.58886538599789
C         1.48609236012265    4.70342977018084   -2.03052726368571
C        -0.71121330141110    2.33132921846243    1.49944821848398
C         2.81884173247251    5.85710077656171   -3.62572874641192
H         0.95177096729791   -0.16244585920069    0.56862716072028
H         1.30044915837943    0.63561420997340   -1.75181085248360
H         5.38776278600583   -0.73738136868304   -1.60984279142416
H         5.06731209669165   -1.44670130251556    0.74091150415086
H         3.33652149914863   -2.14819280776335    2.47331611417738
H         3.28434742869147   -0.44175149279475    2.92527165955329
H         1.78140934163053   -1.29279647008219    2.54305526335447
H         4.63373562057497    0.27614883071537   -3.56172529588051
H         1.67679079289731   -0.36663810703821   -4.00289012955589
H         2.91659302433766   -0.26072306631749   -5.25342911232196
H         2.99695108671932   -1.53845170563978   -4.03759579195205
H         3.76911039500455    2.52304360529185   -2.84143469211751
H         3.51794949016975    2.18414468788323   -4.56201413265499
H         2.16723410559410    2.07161104858826   -3.43168113701492
H         7.65398612724863    3.57062597074112   -0.83586499894062
H         7.76336662127293    6.02751923360792   -0.91926604445690
H         5.77713781516027    7.40308634717625   -0.58168235813651
H         3.87059303498203    8.16520809320226    0.67090674955963
H         3.60438010770481    8.14821011829697   -1.09336548577290
H         2.21703553786901    8.03172946120761    0.01900311321673
H         4.13609531700998    2.38073158268508    4.57674333403323
H         2.88056826671474    4.23225052134038    5.60582019904192
H         1.45762965439758    5.69513906642503    4.27435489191572
H         1.11229977464002    7.29702160846418    2.53448260307569
H        -0.08126501079106    6.99836024771256    1.24272492299136
H        -0.29081717207184    6.23763190486991    2.83870874309732
H        -1.90290633699006    3.56444829556327   -0.50978441555236
H        -1.84736321559822    5.05699903809100   -2.45318701314395
H         0.25862668412567    5.73946599117576   -3.46775371034112
H        -1.17371173423494    3.25926366996229    1.84725371922480
H        -1.46531883108883    1.72001471779282    0.98963850399489
H        -0.31828022765232    1.78523309968935    2.35624585880296
H         2.37322954404615    6.83221100263290   -3.40374787932384
H         3.88795300777630    5.97785723176248   -3.79515313526708
H         2.35442114114062    5.44344141061908   -4.52778446033233

