87
CSD_code = ZUVSIS | q = 0 | S = 0 | Stoichiometry = C40H38Cl2O4P2Ru | MND = 6
Ru        4.13014924747554    5.28597870783359    2.61475355102065
Cl        1.93979986956909    5.36177507612346    1.72590144684933
Cl        6.21834513582739    5.77911753790484    3.60966153725005
P         3.75113594930916    3.55632317744595    4.00064697712454
P         4.98169677885813    4.38967937015302    0.73644006667683
O         3.26965210784570    6.41289049877005    4.42571003840002
O         2.35215933920786    2.17119501037502    6.16847605396157
O         4.44307376508721    7.19614852381360    1.37365245449196
O         6.62325325508547    4.41356879011412   -1.68770320477910
C         2.73619750273319    4.29501460497610    5.32121561375641
C         2.61584713694575    5.68529651836292    5.37530191159108
C         1.84779618308605    6.27383943899303    6.37748464160311
C         1.19989919301558    5.46932641385459    7.29527332490709
C         1.31677317811655    4.08994395423368    7.26183643645199
C         2.09883178459114    3.49570523207762    6.27882340637037
C         3.73781816849348    7.69478338805712    4.80254991099287
C         1.69448917448498    1.27242566760632    7.02699976968972
C         5.20034514102153    2.89126362406149    4.86877095041266
C         5.45318396007510    3.09612208566767    6.21851577138684
C         6.63288795943651    2.63415240067286    6.77540199205191
C         7.56809801329071    1.98023267916372    5.99150041266459
C         7.32901318638300    1.79223238861828    4.63933250544774
C         6.15265419229104    2.25038726515965    4.07994839611906
C         2.77329680890802    2.09935670617114    3.51505131202568
C         3.27283481567442    0.80223211257230    3.51891088598392
C         2.47056914406373   -0.24587071539763    3.10255591191475
C         1.17200220471850   -0.00937088433997    2.68279848315032
C         0.67185112007737    1.28308579340863    2.67935112674802
C         1.46788785514372    2.33489381704750    3.09084939657187
C         5.60080894213379    5.84134885070876   -0.17399377726372
C         6.40739556208678    5.69468594876167   -1.30977400077278
C         6.87805281150512    6.82281369962045   -1.97071171180341
C         6.52005193514102    8.07865396634110   -1.51007920176850
C         5.69927186887365    8.24030197776436   -0.41027951949332
C         5.24111832961049    7.11514529980022    0.27148846322154
C         3.54842427376308    8.29104102416274    1.44550794220150
C         7.49086865307205    4.15160606992741   -2.76288082196908
C         6.42271091707766    3.27679343518504    0.73965227593270
C         6.39081641481091    1.97690439529440    0.24830722321517
C         7.52420363607731    1.18579888042059    0.31933910634927
C         8.69077297143818    1.68271842656340    0.87664524504549
C         8.72487701815148    2.97890702494814    1.36584322466015
C         7.59634578863856    3.77364295118230    1.30109527866239
C         3.78981394488967    3.62410132155888   -0.39912135485756
C         3.16258850145728    2.46546082588427    0.05251946587682
C         2.17687352492545    1.86435703806641   -0.70490123872359
C         1.80224505548289    2.42278634581012   -1.91678219279004
C         2.40941182572551    3.58524019115613   -2.36038201822940
C         3.39679004918259    4.19169192033790   -1.60373226696256
H         1.73598384504316    7.34492164921567    6.43084910048990
H         0.59254376875617    5.92786624635727    8.06108440412525
H         0.80875815002469    3.49474028352936    8.00328502218727
H         4.05475118837618    7.69687466678203    5.84922083161904
H         4.60999423007570    7.90476350408979    4.17864269442246
H         2.96676222558627    8.45801710302471    4.64553639009551
H         0.60722312518924    1.35255541133557    6.93323760972858
H         2.01097315902139    0.28076660951143    6.70799572314215
H         1.98554068644545    1.42831105336042    8.07092034727655
H         4.73622660730969    3.62478599802612    6.83089039937959
H         6.82884483545807    2.79669013294528    7.82589520736795
H         8.49112916050315    1.63106602866665    6.43133056157659
H         8.06464719968610    1.30265430354328    4.01761333014020
H         5.96664019363243    2.14132108230777    3.01900548566822
H         4.28077187795105    0.61029826256712    3.85694520595601
H         2.86181564118885   -1.25367900357995    3.10737450983794
H         0.55108488555573   -0.83243977269505    2.35828619556527
H        -0.33925542498962    1.47257141557684    2.34961519908156
H         1.09269173678402    3.34840130777863    3.06577546477680
H         7.50826281694143    6.73483581906203   -2.84087909271718
H         6.88623609565972    8.95309020762788   -2.02668458046261
H         5.43947603762380    9.23223882149276   -0.07689759141265
H         4.02634283307537    9.16072576012768    1.91129596776501
H         3.18378875512262    8.55680637970005    0.44934188379299
H         2.69765336091302    7.96038569695855    2.04631842959152
H         7.54828198057376    3.06664834014261   -2.83280154689774
H         7.09987659731882    4.55595314481217   -3.70223691430722
H         8.49080977608850    4.55544192127690   -2.57745259479991
H         5.48751072254615    1.58826751110129   -0.19893169957102
H         7.49626580845758    0.17544643719312   -0.06430582708933
H         9.57205434102729    1.05917625679526    0.92981466452553
H         9.63157738371378    3.36941434336892    1.80444657959136
H         7.60861589753815    4.77644645328116    1.70462004494383
H         3.44205826919941    2.06026751968394    1.01677381863313
H         1.69128354658682    0.96980283673404   -0.34247662909350
H         1.02529622152734    1.96043652422820   -2.50833560965991
H         2.10334577990130    4.02994516391973   -3.29681665492714
H         3.85225248986295    5.11075580305185   -1.94486753178304

