89
CSD_code = ZUVWAQ | q = 0 | S = 0 | Stoichiometry = C39H46ClIrN2 | MND = 6
C         8.28759971891154    0.19316972304118   24.45326592945348
C         9.65106425618446   -1.42566367319944   23.66615579632389
H        10.02395792248434   -2.42211562483728   23.55231936062857
C        10.09723750578475   -0.24063755214013   23.19181510948961
C        11.20027963659909    0.37680928992966   22.40684244037957
H        11.28210547093135   -0.04520804702725   21.40362110587931
H        12.15481463209154    0.21725781165799   22.91243856963780
C        10.82417036228122    1.87686407552264   22.37790566962236
H        10.52940496361745    2.18737149434600   21.37671705239899
H        11.67169961597373    2.49345197172829   22.67307242163095
C         9.64989122347087    2.06745057242604   23.37368182373179
H        10.04362245467360    2.48030657631114   24.30409249021132
C         8.51183882147889    2.93607082538284   22.87782342715366
C         7.76729402694803    2.56525645939778   21.74859935874691
C         6.75510416702687    3.40531375923101   21.29796861166006
H         6.17038733888625    3.12336554402067   20.43605406621179
C         6.48814043693527    4.60119573559082   21.92741472126367
H         5.71268892912733    5.25321475077055   21.55239744766252
C         7.21079398742232    4.95425614770613   23.04933959246846
H         6.98732865948288    5.88954395556881   23.53558054783267
C         8.20589913698810    4.12902182258970   23.55691834268045
C         7.97883831388140    1.28007352436895   20.97119456075513
H         8.83751300022785    0.73841865860999   21.35649119860827
C         6.76831397232676    0.35357846737561   21.12074805826794
H         6.63324247057330    0.07274111812522   22.16325323129315
H         6.91882522705554   -0.55220326238609   20.53637585293476
H         5.85688021866704    0.83440952593833   20.77518757438028
C         8.25463127308011    1.56865894808214   19.49119047529461
H         8.53437069171125    0.64962743434338   18.97953090612899
H         9.06764234120457    2.28436559968976   19.38309465316285
H         7.37873513519685    1.97612752742818   18.99439013622414
C         8.94224741867358    4.56085642375430   24.80934942808763
H         9.15413979599801    3.67564642272678   25.41512064307193
C        10.25773023757466    5.24742548428369   24.42530597078125
H        10.05063780474711    6.16053083701233   23.86955678186845
H        10.87467311530304    4.60671831508645   23.80029259871786
H        10.82127575845730    5.50695799363535   25.31856516477993
C         8.13026936811714    5.49075485103175   25.71271334770154
H         8.04561323331808    6.49279400152215   25.29696420127217
H         8.63059418592781    5.57370398151383   26.67523153301669
H         7.13581137207298    5.08741861914955   25.88007038728514
C         7.80227641038375   -2.10961422987180   25.21461608163495
H         7.31173245938484   -1.52558065845641   26.01016339300064
C         8.78020182712549   -3.06382116147516   25.87130229413830
C         8.82643001939595   -4.41486451609554   25.56139888572857
H         8.13377267221952   -4.82882080481904   24.84269911171938
C         9.75856483473390   -5.23639947272383   26.17373393242661
H         9.78644992526744   -6.28821462015873   25.92870638794588
C        10.65220610003649   -4.71320376880276   27.09136142684368
H        11.37888312825588   -5.35631617919523   27.56569933223693
C        10.61192296959712   -3.36266746799025   27.39939888418355
H        11.30692297142060   -2.94876876550271   28.11449160066568
C         9.68004776025320   -2.54063584703137   26.79440508899055
H         9.64845660247078   -1.48663069503253   27.03125058211007
C         6.72317372454608   -2.79861505182875   24.41422582640801
C         6.78003958987232   -2.91259842271708   23.03240762332425
H         7.61956877548896   -2.50462749157490   22.48946122608447
C         5.76050545394153   -3.54343097165028   22.33963156991588
H         5.81343519910528   -3.62101367010326   21.26355063774393
C         4.67866882669845   -4.07329772116119   23.01973794236492
H         3.88436456387709   -4.56434226811594   22.47759997270097
C         4.61893179216565   -3.97007336612050   24.40008200566122
H         3.77717887184321   -4.38179968182785   24.93720846117693
C         5.63292919467993   -3.33463929575433   25.09133416071446
H         5.58613289569426   -3.25025905960495   26.16724388942602
C         6.01672928341968    1.14683200599019   27.67151154886518
H         6.71163903973693    0.86378605972173   28.46017821115561
C         6.07526486556501    2.44341724124725   27.19533501548452
H         6.82850682459048    3.10167758273742   27.61986449290374
C         4.88754420141417    3.14133608749209   26.57361523423647
H         4.93330858432786    4.20765457121108   26.80639783259138
H         3.97267620708118    2.75506642473768   27.02677371971581
C         4.84243911217555    2.96257230171670   25.04483264191357
H         3.80397121664151    2.97693015689832   24.69481307022679
H         5.35309048793063    3.80089106012564   24.56768991213028
C         5.51369678554486    1.69402807208533   24.56866166374411
H         5.80730421762400    1.75778831694393   23.52361926404253
C         5.23454484651647    0.41341642841248   25.08336916774928
H         5.34327010948390   -0.42367166721153   24.39572669364279
C         4.20001812125171    0.17536815081144   26.16645166479388
H         3.75839742512619   -0.81324807802228   26.02417186053127
H         3.39596793842914    0.90518388223143   26.05792178195777
C         4.80184908677260    0.25166950384320   27.58370171408641
H         4.04453547022841    0.59884458463951   28.29519967220905
H         5.09834789700444   -0.75159274681862   27.89858331970986
Cl        9.14663604496163    1.27647468135130   26.97714485280589
Ir        7.10244949707327    1.10254694649781   25.82714792626406
N         8.54316407148641   -1.13834803202374   24.43547360165835
N         9.24394389571350    0.71521156424458   23.67085423192796

