39
CSD_code = ZUVXOD | q = 0 | S = 0 | Stoichiometry = C13H19N2O4V | MND = 6
V         4.22480124097848    1.00061332201294    1.72083765852388
O         3.28194353522033    2.17289275222757    2.01060464518064
O         3.14055620079504   -0.37155355214218    1.63784628895503
O         4.95786270265187    0.45437745975442    3.13822089712231
O         5.57827382339599    1.98636178930392    1.17551168324245
N         3.80945127250726    1.05026039414761   -0.41262829966639
H         4.05223930028615    2.03139494548930   -0.53793128390461
N         5.75117968923371   -0.56075196030537    0.87047365469556
C         2.26270178946123   -0.98712611731915    0.89546857654217
C         1.72715125208859   -2.22455775870373    1.29039009915260
H         2.01979696005648   -2.62526042519857    2.25095824387386
C         0.83655329302620   -2.90220344020711    0.48265625826893
H         0.43409507430713   -3.84923828444318    0.81133423243958
C         0.46303427344008   -2.37938117524949   -0.74430465028963
H        -0.22804981257149   -2.91271515296597   -1.37831190869670
C         0.97893907529045   -1.15872186319823   -1.14891567280659
H         0.68114409610741   -0.73862363287560   -2.10030329353488
C         1.86297606729821   -0.45597294122579   -0.35020078300611
C         2.39161649010857    0.89562127842017   -0.74328475508890
H         2.22381247882810    1.06362210091079   -1.82041258066157
H         1.85207219930525    1.66486565423080   -0.17416619625433
C         4.71488294025975    0.21795749015618   -1.20720576553063
H         5.57485891942115    0.82410790291346   -1.50988353198342
H         4.21092601289175   -0.14422539693615   -2.11424527688293
C         5.22023237913854   -0.99700114560235   -0.40790433310598
H         4.38400976160381   -1.67882884432737   -0.23398741420395
H         5.97540609380877   -1.53290937009007   -1.01083201353605
C         5.69551176150976   -1.52397076880342    1.95419719089451
H         6.57799995169518   -2.18683818457081    1.97125025095944
H         4.80449377149093   -2.14160895772535    1.82711294172578
C         5.58104709430114   -0.74935056974289    3.29793302301738
H         5.01410957993244   -1.36561181237561    4.01939345552285
H         6.58725489754648   -0.58609608918140    3.72594708466772
C         7.02914446561965    0.12636925197739    0.77514019372252
H         7.33105527460487    0.20582130066646   -0.27379520248000
H         7.81684510193903   -0.41537237197752    1.31315525840467
C         6.85498272598341    1.55154914402884    1.36626704884529
H         7.06464199995860    1.52619720755864    2.45122143347049
H         7.57384626647966    2.24310782136874    0.88999284240488

