120
CSD_code = ZUWGUV | q = 0 | S = 0 | Stoichiometry = C52H61BCoN2O2P | MND = 6
Co        7.15512111023477   -0.62679208744279    4.74314117905822
P         5.40977306517033    0.83135303691958    5.57123358142775
C         5.06873473894573    2.43742082321281    4.75764546499395
C         4.26621387736370    3.39721059230215    5.36929836271933
C         4.05190830866934    4.61502930125543    4.75325191096529
C         4.63855581108304    4.88997237022501    3.52699345650044
C         5.44278563508814    3.94241699979446    2.91863049741148
C         5.65857771455004    2.72088471903737    3.53350236005664
H         6.29478528084265    1.98094429892636    3.06957658870282
H         5.90607217167343    4.15537912480435    1.96609055865868
H         4.47080345579386    5.84492858743270    3.05071279603030
H         3.42839999691336    5.35655052970527    5.23169229641135
H         3.81301731237482    3.18713615451657    6.32809913594531
C         5.90602303143389    1.52764272128830    7.19323508003130
C         5.05268112762012    1.67908594118985    8.27986049819231
C         5.51282177878528    2.25881080832767    9.44957402870387
C         6.82094074351760    2.70084127665278    9.54534395760139
C         7.67384988529233    2.56237681184850    8.46232119657514
C         7.21881954495373    1.97956189611237    7.29534504801949
H         7.88207671936588    1.86050584706828    6.44813665777090
H         8.69550507240844    2.90660407636655    8.52965337357471
H         7.17479570930020    3.15108283508274   10.46113572165965
H         4.84251091595505    2.36672449223380   10.29038966293826
H         4.02779478683627    1.34015373224889    8.22377801597973
C         3.72536958337723    0.24073704392079    5.93949453360171
C         2.60489870987534    0.63984047342681    5.21964896626707
C         1.37298590518565    0.06397127146704    5.47744467089488
C         1.24948303357394   -0.92212433721685    6.44172724485278
C         2.36745487879993   -1.34308125599604    7.14669712981132
C         3.59885835814885   -0.77262333318828    6.89027450073583
H         4.48066048807834   -1.10371017117765    7.42539701355098
H         2.27647149988809   -2.12070210524153    7.89157870817296
H         0.28615078127295   -1.36865540005099    6.63941458439349
H         0.50505997092040    0.38510036922373    4.91962278317943
H         2.69666232201257    1.40212844268441    4.45874306463716
C         7.57901352912286   -1.15433193582669    6.35831496717831
O         7.80647460550115   -1.55616916784124    7.41237358444077
C         8.40697888996713    0.49976872712085    4.21654536783273
O         9.19053789570647    1.20400121383809    3.75228892781268
C         6.82227121095643   -0.86723299281134    2.78131284757766
C         6.05981806346227   -1.80273722631725    3.53608445333780
C         6.73026033533838   -2.65795215564838    4.43247134088223
C         8.10358710051500   -3.25094440163924    4.13687717041633
B         8.10500515020803   -4.52725136487590    3.17908837683016
N         8.26600435334523   -4.53090542932186    1.76651029408001
C         8.41173443093786   -3.47219988019362    0.83745307681550
C         7.34847177638639   -3.13319875566410   -0.00741771802094
C         6.02622604665540   -3.86055328454811    0.07372777670495
C         4.84124000041280   -2.89631050144208   -0.01421377006182
H         3.92667108257228   -3.40126404189744    0.29131743268359
H         4.99989745162783   -2.03730929355545    0.63133974976823
H         4.69872273355557   -2.54255266956530   -1.03252046809851
C         5.92245568195965   -4.90585873823216   -1.04128220822310
H         4.95768296772628   -5.40723041296743   -0.99661351943767
H         6.70212585550888   -5.65671642088757   -0.94690100111793
H         6.02077496796481   -4.42992713896595   -2.01497266665416
H         5.98000075153197   -4.37448984161616    1.04002517512491
C         7.53275983761541   -2.11906811506877   -0.93699406923947
C         8.73374672755821   -1.44209772758767   -1.02083794944027
C         9.77433664172616   -1.77819812571909   -0.17742024817513
C         9.63505473860254   -2.79464589542183    0.75750931720529
C        10.80952768009361   -3.18519212052044    1.62506312196764
C        11.85335497712455   -3.91556460805601    0.77515822246490
H        12.69726215105910   -4.21627070740570    1.39240289201489
H        11.41947075865767   -4.80665717917308    0.32617841606925
H        12.21953857483815   -3.27263396304613   -0.02220111847694
C        11.43294802003424   -1.97872657246198    2.32884261568497
H        12.17422012574196   -2.31403132731484    3.05114404770485
H        11.92727164886590   -1.31868671296022    1.62070647880915
H        10.67571498722335   -1.40491920485766    2.85885844108745
H        10.45998115814912   -3.87923148586808    2.39394469396730
H        10.71130983273042   -1.24857083779540   -0.25514529623204
H         8.86040879417873   -0.65360108899041   -1.74820951473402
H         6.72918700699668   -1.85334512135690   -1.60603290774498
C         8.38192817695836   -5.84669079166711    1.34872885461729
C         8.29638864360122   -6.66015589233848    2.41528745987004
N         8.12376765403211   -5.89846515877626    3.56003246773316
C         8.10481014530839   -6.51772246409794    4.83327682339508
C         6.97325329805634   -7.22801440261042    5.25240599859895
C         5.75151967106304   -7.35681553800549    4.37080516114561
C         5.68853711509701   -8.76112646787563    3.76173757741634
H         4.80960360785417   -8.85633661717471    3.12743928677205
H         5.63215077301330   -9.51243378528315    4.54663404224111
H         6.56960805967108   -8.96483889050679    3.15880671682430
C         4.45691241454772   -7.07277496800440    5.13792192728249
H         3.62932836025067   -6.96161403285619    4.43984573868530
H         4.21561170842997   -7.89025077958029    5.81271918358765
H         4.54247419852210   -6.16072627727105    5.72312845854845
H         5.83552572812223   -6.63073740782645    3.55540006188515
C         6.99658600762442   -7.84952295719339    6.49353923403933
C         8.10830527170982   -7.76823873400840    7.30843127893937
C         9.22298605758811   -7.07243432866989    6.88314607686832
C         9.24338038660985   -6.44259126802159    5.64677336906077
C        10.50630544865205   -5.75995669353483    5.17257204172070
C        11.54344156282663   -6.82101059944899    4.79203778033222
H        12.45102525846185   -6.34560166289088    4.42614837888704
H        11.79765359523977   -7.43727180575846    5.65165261022222
H        11.15304720639084   -7.46778814205494    4.00900596040889
C        11.07590590933765   -4.79673445792726    6.21476479559834
H        11.89491260551929   -4.22643433259242    5.78159020027753
H        11.45859825271459   -5.32998668182858    7.08128834845436
H        10.31387549172647   -4.09740327302126    6.55157561624075
H        10.27537659644534   -5.18207681232495    4.27436924339170
H        10.09430071369987   -7.03052109436666    7.51840790008267
H         8.11019412947885   -8.25686418784431    8.27177733357993
H         6.13619681112305   -8.40858062984593    6.82755617990400
H         8.37077006359692   -7.72905805936817    2.45868063328767
H         8.54571579852715   -6.09603211106835    0.31849905358187
H         8.54928999306959   -3.53929029810767    5.09104536105332
H         8.76274638209708   -2.49977222802575    3.70029755357558
C         5.89794290028443   -3.59560599772595    5.28098350542873
H         6.52465418010175   -4.12565767553826    5.99563892253733
H         5.11603099971868   -3.07683533039689    5.83153604947676
H         5.42398360147612   -4.33522830726218    4.63444793009919
C         4.55607925442279   -1.77660237751734    3.45509948689877
H         4.07203414966169   -1.84984671810011    4.42555656694201
H         4.20606948649117   -0.86773326928518    2.96669482157048
H         4.23122908167928   -2.63456471517563    2.86352922506347
H         6.25163096819622   -0.19779475665622    2.14185646961533
H         7.72464041296006   -1.20535640177149    2.28046735126910

