92
CSD_code = ZUWVIY | q = 0 | S = 0 | Stoichiometry = C33H56FeP2 | MND = 8
Fe        6.41770022435257    7.57123285106400    4.14611576570372
P         4.84830989551487    9.02087739666464    4.19670601983509
P         5.00492390051537    6.16142711381068    4.91635726825158
C         4.29962492268744    9.98252454483862    2.67866653199226
H         3.29728705908987   10.39613967605878    2.85081140700776
C         4.25325036304467    8.97479521007221    1.53113279560091
H         5.23171665626338    8.49192229466532    1.46860769223153
H         3.52444145142111    8.19442932543663    1.74995684280598
C         3.90182717468638    9.63352933006260    0.20141054522105
H         3.90726597355542    8.88480257729982   -0.59418529830939
H         2.89318021222741   10.05121556298230    0.25884960939500
C         4.88785197279832   10.74971917574101   -0.12188273091940
H         4.61625469402207   11.23171260105501   -1.06374755624504
H         5.88909023569051   10.32842913961368   -0.23820705679457
C         4.89695044981013   11.77285094133781    1.00762171251867
H         5.60739578157513   12.57241667865157    0.78391093664803
H         3.90467343294143   12.22319370141247    1.09447293473193
C         5.26986013540442   11.10926237138656    2.33156532881661
H         5.27717367675215   11.86560574451187    3.11761261606523
H         6.27573751286078   10.69407387867146    2.25395572410226
C         5.08698404990409   10.39992938581735    5.44400685733591
H         5.97116359195064   10.93345760236042    5.07044090738450
C         3.96549790224964   11.41086352840047    5.66748256401448
H         3.66347963395742   11.87828922819843    4.72886563955875
H         3.09059450478026   10.91368981009891    6.09097548512922
C         4.43841535048477   12.48450263122134    6.64810050658765
H         5.28926384622267   13.01853961772505    6.21758628107271
H         3.63927517824994   13.21091733420629    6.81518014011359
C         4.85477950454974   11.85861587957084    7.97665696471590
H         3.98618133324133   11.38128397063386    8.43704776670519
H         5.20805777535424   12.63580838630190    8.65816368643861
C         5.94693123762138   10.81369600274882    7.76156148026033
H         6.20871618397949   10.34715056670160    8.71399289332844
H         6.84289528181906   11.30144396587055    7.37013584364598
C         5.47314708638875    9.75624967357678    6.77161081887180
H         4.60867838512939    9.23478505665745    7.18648571054488
H         6.25188737448568    9.01303250397432    6.58331588874624
C         4.30035369657450    4.78342373367082    3.84774604967243
H         3.39964484907680    4.36944700679528    4.31771989197727
C         3.93037905107604    5.43715055679046    2.52013769265200
H         4.81903813394283    5.94728428829224    2.13845739734629
H         3.16572876261265    6.19488615661824    2.69506019908412
C         3.41525835042859    4.42387779624411    1.50371751478699
H         2.48404444335923    3.98374311546444    1.87063097523459
H         3.19660257657315    4.92690483817039    0.55895596879092
C         4.43815910351183    3.31614726684411    1.28128866960503
H         5.34494105844820    3.74328009092575    0.84791717399956
H         4.04645976777597    2.57849020244105    0.57712259059724
C         4.77571645825607    2.64522468537583    2.60794384477881
H         5.51754407674599    1.85809513572133    2.45142704949530
H         3.87555684081793    2.17740608031939    3.01536063151904
C         5.31145447774567    3.66799231159939    3.60719484610236
H         6.22580056903973    4.11231469665875    3.21256584443918
H         5.55555131038798    3.16224806839959    4.54317423799198
C         5.46227151302867    5.20747146810805    6.46332593597139
H         6.30636451810947    4.58078478654335    6.14274622128966
C         4.39370105099971    4.31358673059338    7.08852337470012
H         3.55681961927100    4.92485764813698    7.43169854893240
H         4.01141008896991    3.59692761031426    6.36040849417796
C         4.98394289114257    3.55539307314420    8.27774420450949
H         4.21512420031064    2.92652721089920    8.73322111203566
H         5.78427597128235    2.89978933251427    7.92502663426531
C         5.54651686578885    4.52068576666949    9.31701596283103
H         5.98340130286374    3.95994606489618   10.14643627301697
H         4.73468660201568    5.13217027790783    9.71825278128568
C         6.59729645982795    5.43109855605658    8.68750563692860
H         7.44076313444158    4.82732404831150    8.34359573792483
H         6.97251689999394    6.13742922502226    9.43156167895595
C         5.99391532609563    6.18551886403161    7.50778740686812
H         6.73384360453830    6.83709352698343    7.03986529285647
H         5.18309128090421    6.81784948761335    7.87278175565125
C         3.20297344347211    8.29062471720378    4.69427801742087
H         2.62536964108217    9.00514778644981    5.28578990403976
H         2.64572411535737    8.10328051547092    3.77391337138588
C         3.41734920395137    6.98875352526431    5.45615843611028
H         2.56510109513463    6.31294557615995    5.33868354417035
H         3.53243999104154    7.20549681306025    6.52000543322993
C         7.72628568167694    8.28814959701090    2.57467447496695
H         7.59451288970110    8.85311856885565    1.66166251227395
C         7.73490803242953    6.88843715544370    2.52736081326179
C         7.98682781816070    6.19977263792655    3.73862030495730
H         8.07371503843612    5.12104529978069    3.72524393617223
C         8.31076337218325    6.88313021473245    4.93450750066349
H         8.61296515887507    6.31182573552938    5.80069523275765
C         8.30426013525083    8.27882014121774    4.96968310531736
H         8.59919317081477    8.81738152956630    5.85736516281817
C         7.96152822811715    8.97385219592752    3.79030237564861
H         8.00635687930856   10.05523313953513    3.78404701906135
C         7.57896147563261    6.15907989192880    1.22748418366002
H         6.83363046834477    6.64348127072645    0.59884885577864
H         7.27733861185685    5.12782159935131    1.39404000417042
H         8.52495674763227    6.15021712138170    0.68187765874157

