72
CSD_code = ZUWYUL | q = 0 | S = 0 | Stoichiometry = C21H45N2Si3Y | MND = 7
Y         5.20540371498823    3.31215897182625    4.13030458289475
Si        4.45089687514252    5.59687862460713    2.16486536726650
Si        6.88391559814196    2.40409392911598    6.83295350495805
Si        4.16427350943927    1.07242218277781    6.39870697499586
N         4.28306152448601    5.23399108784466    3.84856133122431
N         5.44560259279775    2.12120805305073    5.92996766273748
C         5.41057807800648    7.20821522190374    1.74968145954434
C         2.86214628415042    5.75214212121476    1.09056990798761
C         3.39323792551504    5.88511722004052    4.79813175650229
C         3.13854306572040    7.35452820659099    4.44165142023588
C         2.04391429957873    5.13876430907114    4.84065874280989
C         4.03264088867225    5.82627032086569    6.20088757684775
C         6.59533937642010    2.95305926294312    8.64111057685897
C         7.74273768301849    3.84924401318595    5.88484295804615
C         8.10073081001507    0.92922436715590    6.86050669177127
C         3.02458413929568    1.81874542642569    7.74803532575882
C         3.10206183702813    0.87750077197066    4.80210666941803
C         4.70798251905524   -0.65868787981318    6.98473729977982
C         5.43074599060952    4.00416824004876    1.78397152549581
C         6.79293177754215    3.81080274929483    2.17685916135505
C         7.03030756668867    2.42469484392984    2.34023141461524
C         5.81032147075243    1.73335225730677    2.07246599948759
C         4.82369447810354    2.70052740443715    1.74617250800508
C         7.82643386830681    4.90492387388730    2.24281431913690
C         8.34429184621543    1.72641111361335    2.55770950781339
C         5.71295327732025    0.23564754095352    1.96759263737702
C         3.43603180989949    2.41468421757716    1.22820439399245
H         5.87948000961390    7.14731017385124    0.77387611185577
H         4.73405598698274    8.05590883342164    1.73172273284342
H         6.18455850269786    7.42376770269595    2.47747922013407
H         2.05626373814142    5.11610694155836    1.43983378256270
H         3.05784635603652    5.49563355577403    0.05528223665429
H         2.49885375145127    6.77459322986614    1.10586388712649
H         2.61812849126898    7.42190569187647    3.49221679657992
H         4.08465296823243    7.87971642326425    4.35404533717527
H         2.53524579848588    7.83375094711533    5.20936571125158
H         1.37860046054521    5.57886020489477    5.58059823912368
H         1.56727625429268    5.19421131523921    3.86485977269297
H         2.20753507670857    4.08662122229271    5.09433035275698
H         4.23076554865521    4.78587157066569    6.48597660072479
H         3.37138568544469    6.27043957905788    6.94281396456731
H         4.97118741277249    6.38005258526969    6.19890535540843
H         6.14018553192611    2.14774615250143    9.20714928416229
H         7.52620908628641    3.21404878880914    9.13377553199385
H         5.93484760498471    3.81199387871377    8.70238247679482
H         7.01267924820573    4.60111860443374    5.54449027152889
H         8.29074938978953    3.47243697363157    5.02229335720369
H         8.46005816789504    4.36656593799340    6.51578093659575
H         8.25597114741078    0.52140484399751    5.86679406335442
H         7.71708420871323    0.13024780050887    7.48456581817559
H         9.06969096408288    1.21889748048866    7.25407819363059
H         2.20116634670126    1.15230816475335    7.98487853748271
H         2.59989805433682    2.77020569117876    7.44050319776023
H         3.57952979241613    1.99109536609659    8.66359339904472
H         3.52023249971066    0.11992219855369    4.14520117526762
H         3.04748097775461    1.82621029020769    4.24193726407005
H         2.08380149433239    0.57976129137987    5.03344845993540
H         5.19479620824552   -0.59179804815168    7.95124031471277
H         5.41150703690843   -1.10919145175580    6.29319755227371
H         3.86291662466205   -1.33135680501527    7.08630801716104
H         7.63500577836787    5.59889001647615    3.06525274629238
H         7.81559022881583    5.47947928715957    1.31751856308505
H         8.82599001921201    4.49200024299194    2.36756231697829
H         8.26601722240631    0.97791116814713    3.34788112305170
H         9.13211306014789    2.42657964646651    2.82873477779487
H         8.65408093341639    1.21179275577666    1.64514705511301
H         6.09492940244528   -0.24808033248203    2.86859337179221
H         6.30632595757526   -0.12237771486817    1.12312124283326
H         4.68569339201514   -0.08932206278318    1.81426693525168
H         3.22893921912118    1.34563498941605    1.23029176202542
H         2.66623907803366    2.91581240029502    1.82009614695741
H         3.34387247582017    2.77032401640831    0.20144472930495

