91
CSD_code = ZUXCEA | q = 0 | S = 0 | Stoichiometry = C44H40Cl2N2P2Ru | MND = 6
Ru        2.40952382714412    0.02761961999407    1.21331987504618
Cl        0.32268187227543   -1.16611408105745    1.17809993942237
Cl        4.49401684217378    1.16215860240115    0.92702981935671
P         2.28085645212002    1.09275680857859    3.25645183573016
P         3.41178842347851   -1.88077015940905    1.97076902785511
N         1.51582762209120    1.55719384312260    0.27391545626158
N         2.58462170315125   -0.71865098014019   -0.62606251313747
C         1.28196213884727    1.20482690228735   -1.12428862525144
C         1.04139399891765    2.38752392490478   -2.07187621534110
C         1.03399576913545    1.96971446496284   -3.53815098072423
C         2.34373803589416    1.28504172255253   -3.89412454575400
C         2.48374119411969    0.02882404646135   -3.04539385822181
C         2.52376709193293    0.38707644953603   -1.55867046756591
C         1.16006439324701    2.72575339515848    0.67365876758884
C         1.39489019947813    3.41400175974507    1.92105813771848
C         1.05019048194044    4.77773486880718    1.92706196378667
C         1.27509020818810    5.57913623480248    3.02215539586219
C         1.85168831067680    5.03840509197388    4.16368276916054
C         2.17956918910292    3.69869959642053    4.18771413604857
C         1.96707676267110    2.87741960963508    3.08294617859563
C         0.94447855294630    0.83289201014513    4.48421146290372
C        -0.31255592134286    0.54590604268567    3.96015391971469
C        -1.40614032717449    0.40575366147568    4.79423046607434
C        -1.25835621693040    0.56391265104031    6.16181081200426
C        -0.01557357299517    0.87721537661645    6.68641396933016
C         1.08116539822654    1.02064703661846    5.85549426449134
C         3.80490984446432    1.11132801111836    4.25561039985147
C         4.01971616807461    0.17714007725050    5.26600005088538
C         5.22016532896957    0.15620988314251    5.95479225035660
C         6.22199205710589    1.05745461692775    5.63614748366333
C         6.01637876794386    1.98720273477428    4.62912065224041
C         4.81666932823906    2.01812665109069    3.94250434398403
C         2.55107282953844   -1.92612756855321   -1.05696651980284
C         2.47799880113268   -3.16452942563184   -0.31191865726872
C         2.06663445214634   -4.29651115726983   -1.02774258718107
C         1.93270068447660   -5.52412294046176   -0.41444557903239
C         2.22990050524745   -5.65785225296185    0.93286308090142
C         2.66332559477374   -4.55859373426613    1.65227381018088
C         2.78571590366206   -3.31311742364560    1.05013302880943
C         5.20657206414216   -2.03520045962296    1.71765832659311
C         5.77246693024271   -2.87904013204852    0.76902099408459
C         7.14436534964894   -2.88711765352379    0.58414454225019
C         7.95585804912536   -2.05275823970044    1.33379007288556
C         7.39450551033908   -1.20416061166770    2.27488149872728
C         6.02680046772513   -1.19156921077614    2.46363517554082
C         3.15646693071194   -2.43885690304742    3.68189315842363
C         1.85745489769602   -2.31354643083618    4.17140625837582
C         1.56114667874836   -2.70938857704684    5.46240574433194
C         2.55877341825484   -3.23516051498408    6.26963128221017
C         3.84757670182867   -3.37455687344192    5.77967810836616
C         4.15204592116312   -2.97954480471907    4.48813910194554
H         0.40920523190237    0.52917541580941   -1.14716264329245
H         0.07746943469029    2.85123125312405   -1.85114921073147
H         1.83483460305536    3.12447620266857   -1.91896665934277
H         0.20149382281817    1.28706938858864   -3.72391114192899
H         0.88491118727180    2.85563056162502   -4.15814244719493
H         2.35678201779771    1.01600059089930   -4.95176486033468
H         3.18080709748447    1.95988844037865   -3.70541320319019
H         1.62476667622919   -0.61562891340822   -3.25266771609764
H         3.40114783700435   -0.49953566995875   -3.31509751004221
H         3.41548067907306    1.00793620933842   -1.36478033196175
H         0.63699097177699    3.37267612962379   -0.02647856360611
H         0.60396424957434    5.20833763665623    1.04099664927852
H         1.00374269987782    6.62393526170348    2.99245012618755
H         2.03445006530562    5.65765225906153    5.02901531396167
H         2.61683718103880    3.27408919502315    5.07973767736457
H        -0.42246950083437    0.40794433433598    2.89286231646116
H        -2.37318240421133    0.17017967675297    4.37502827625231
H        -2.10892821103024    0.44915451282535    6.81810728585814
H         0.10220443826532    1.01472396967282    7.75199141624392
H         2.03814420775551    1.27484093434506    6.28671072541734
H         3.24641682445461   -0.53249620768540    5.51689120842938
H         5.37116082646662   -0.57261104094545    6.73816235058596
H         7.16077551759844    1.03438689017791    6.17038470331147
H         6.79621564241805    2.68911592985131    4.37270854434725
H         4.66612190841107    2.73382687893336    3.14789933408972
H         2.51395316245843   -2.10233537487397   -2.12956008292715
H         1.83358670526518   -4.19792707959654   -2.07918030062436
H         1.59863228532185   -6.37791888975979   -0.98511952252314
H         2.12869325639185   -6.61564926503780    1.42092249716976
H         2.90500166861991   -4.66702640877400    2.69958844956957
H         5.14540986273814   -3.53087934120287    0.17581866075597
H         7.58014783746271   -3.54565057626139   -0.15376208069401
H         9.02509794501302   -2.05891841328892    1.17957532121180
H         8.02114984079006   -0.54321334182875    2.85546057430712
H         5.58025891893294   -0.52207905343000    3.18381444219095
H         1.08623518700847   -1.90919178966774    3.52769824722881
H         0.55506033351899   -2.60078129814471    5.84028548937405
H         2.33141561671392   -3.53904972457498    7.28117171561296
H         4.62146899980820   -3.79302645167003    6.40725625570194
H         5.15882976111592   -3.08593839064732    4.10935168125838

