77
CSD_code = ZUXCOK | q = 0 | S = 0 | Stoichiometry = C32H35BN7NbO | MND = 8
Nb        2.75062431410499    0.95905008398553    2.90924613429554
O         2.30212357013430    4.01675660233303    2.37459817180983
N         2.04023486778269    0.21509020638012    0.99052350798196
N         3.22335515136570    1.07869854256093    5.15760295264078
N         2.86133076670443    0.07712695668929    5.98148185190249
N         0.77333622223863    0.44993114386272    3.93883772035217
N         0.72230247819773   -0.51324838541605    4.87555555930134
N         3.06750033272019   -1.28142790684710    3.23547095259445
N         2.77446985689539   -1.85789779889433    4.41282357000885
B         2.00359267725950   -1.10568957144218    5.49116805739733
C         4.57630718696261    2.12193253042520    2.26388968006452
C         4.90536808204639    0.93044306895527    2.63424200457648
C         1.94046847107425    1.41169928050520    0.87560418878157
C         2.40195286906026    2.88580341636723    2.65993278060549
C         3.92965964907318    1.95544062374838    5.87420325728586
C         4.02612867032789    1.50004137411010    7.19006164273925
C         3.33280758468589    0.30323275930875    7.22079305625876
C        -0.47537322205585    0.84722138516985    3.69410569945481
C        -1.35372286313746    0.10603551871305    4.48595727867582
C        -0.55429372064313   -0.74820808322120    5.22577752925134
C         3.68914975843908   -2.18609542083465    2.48856570171060
C         3.80789597939919   -3.37944348897956    3.21207921613457
C         3.21510292427938   -3.13331882189898    4.43237741085326
C         5.24311185315555    3.37231383009297    1.81053446452521
C         6.04006152695139    0.05968264234995    2.78591738562309
C         6.94340628571377   -0.13516011028399    1.73592320262286
C         8.00363029538821   -1.00849987977086    1.87793762705147
C         8.18927247930215   -1.69802291354173    3.06579607541251
C         7.30623899838150   -1.50517454858251    4.11654622331193
C         6.23929758955735   -0.63993369444078    3.98018617938036
C         1.49415271921787    2.36026065838728   -0.11722934461833
C         0.24982146805655    2.17377844824411   -0.72803892817368
C        -0.21466077619056    3.08394368108462   -1.65613073909758
C         0.55445384068452    4.18475033714992   -2.00024264485590
C         1.79986508550314    4.36096424018150   -1.42069463547985
C         2.26993959416873    3.46057347225160   -0.48339509527980
C         4.50747254428995    3.20798761594791    5.31962777313832
C         3.12033019010664   -0.60221469713961    8.38031182189835
C        -0.82079910122289    1.92817538823492    2.73294530434978
C        -0.97677560143116   -1.75923161391002    6.22997083483010
C         4.15368692025590   -1.98083711355383    1.08907231640916
C         3.06869657713268   -4.05345557627074    5.59124039079657
H         1.73258337183984   -1.81493978916920    6.39252349198892
H         4.52963126730009    1.97731277311668    8.00615480289141
H        -2.42168432574719    0.18332982507450    4.51757472262486
H         4.26694687878166   -4.29038869298658    2.88449879308967
H         4.61106553950974    4.24859559304742    1.96057209368450
H         6.18027366670914    3.51807803381086    2.35229643364017
H         5.48080248328268    3.29406647182089    0.74700877190706
H         6.79255132834656    0.39743361545393    0.80697452775371
H         8.69214169307371   -1.15396081084955    1.05737332431259
H         9.01826297009428   -2.38227063760686    3.17196415470605
H         7.44876915399183   -2.03988777972047    5.04512516518492
H         5.54961503088528   -0.49209093037505    4.80175004881640
H        -0.33803909647611    1.30170569381673   -0.47787746913436
H        -1.17842552657328    2.93109484534902   -2.11988471371494
H         0.18719207963265    4.89591254554096   -2.72525465248791
H         2.40827926327326    5.20921592734335   -1.69863149966602
H         3.24547723515907    3.59381348812150   -0.04420487687439
H         4.80322284678292    3.86488196833463    6.13419608098390
H         5.38576456281555    2.98065115880733    4.71513550907971
H         3.77910461315027    3.71621045513398    4.68945910215277
H         3.62862300460496   -0.19696203155634    9.25113055431892
H         3.51358613244504   -1.59564635230688    8.17305063106139
H         2.05977400472148   -0.69904320067814    8.60552266042151
H        -1.84100635317000    2.26211607982251    2.90708761982217
H        -0.14039666568555    2.77248250356739    2.84539982393046
H        -0.74600246617062    1.56442857210137    1.70872541309123
H        -2.06203246433782   -1.78837259578522    6.27795491558347
H        -0.58833487699408   -1.51079806475567    7.21624074779720
H        -0.60800325131850   -2.74677521022607    5.95957614392899
H         5.15551351266781   -2.39189725902388    0.97047531828720
H         4.15996235646357   -0.92685313965575    0.81609021207573
H         3.48547818144771   -2.50371756365445    0.40409411632733
H         3.51932561717646   -5.01203241663797    5.34771494018085
H         3.56306367189446   -3.64760409599293    6.47258140843673
H         2.01919046447309   -4.21086316130341    5.83502554725665

