93
CSD_code = ZUXDIF | q = 0 | S = 0 | Stoichiometry = C34H56N2Ti | MND = 4
Ti        2.51919038343416   11.55908898268063    0.53331327229788
N         0.70185534205647   11.38135596386909    0.83952185640011
N         3.32682081546970   11.52186621355358   -1.14150608735381
C        -0.25258025891020   10.74714559252382   -0.03780949415133
C         0.09095471147276    9.25502951806636   -0.21658247653854
C        -0.87731816852769    8.57053984200940   -1.17701772426250
C        -0.87339934898443    9.26388629853712   -2.53546174976303
C        -1.21817810021288   10.74216633067066   -2.38030644347828
C        -0.25589734270742   11.42868705509907   -1.41455932148151
C         0.20342449674204   11.82597346077778    2.12168421752894
C        -0.50217752849553   10.74415613803832    2.96240228694735
C        -0.82036341898735   11.29689094401695    4.34883854838159
C        -1.71622133728261   12.52796810944669    4.24351027173788
C        -1.05562948329737   13.60182471584638    3.38304339761659
C        -0.72822112620877   13.04985759693429    1.99984886620268
C         3.66485333935336   10.28647706500146   -1.81085292121975
C         5.18012928947200    9.99841580313578   -1.88833841235458
C         5.43141958019910    8.59172965435110   -2.42496052622630
C         4.81163130565592    8.41892153893690   -3.80848370372361
C         3.31928465370510    8.73377330708905   -3.76702672917784
C         3.08863747102559   10.14571774800342   -3.23761114389684
C         3.75822131947636   12.75869396313564   -1.76364336669832
C         2.57447175932960   13.74700146846126   -1.79672212450475
C         2.97062853721228   15.12010686942621   -2.33510312226684
C         4.13389225064494   15.70840954785551   -1.54527273007268
C         5.32398237511678   14.75856160480237   -1.60210731293962
C         4.94416359694445   13.40379785486717   -1.01238764746528
C         3.31279634265115   10.10667489231722    1.77791801545658
C         4.34276569809681   10.82838530026060    2.66521773146575
C         4.54315558759266   10.03991539763908    3.97061771693670
C         5.68907670820635   10.90562861303934    1.92594731908194
C         3.90595585410901   12.27235585680331    2.91496118628850
C         3.18949070217013   12.92522471450927    1.89343257184912
C         2.83649496771482   14.25875507173806    2.09917660606165
C         3.19049421160109   14.94338885857661    3.25342234922388
C         3.90429901410136   14.28866313604411    4.24001463197742
C         4.26192967512057   12.96074152426617    4.06930015909571
H        -1.27214701354697   10.81503080014946    0.37203834541870
H         1.11884088931143    9.18946523540936   -0.59791802910772
H         0.06007055779113    8.76131915978957    0.75853628584484
H        -0.60450764940154    7.51923814099963   -1.29568224526344
H        -1.88603235390119    8.60595665586437   -0.75689976383923
H         0.11568423547343    9.16426832741801   -2.98729189285925
H        -1.59383664126162    8.78319142929098   -3.20130204418627
H        -1.18283806767676   11.23619973664702   -3.35455983407581
H        -2.23906328047958   10.83451656703307   -1.99982259386486
H        -0.53685605194890   12.47946263744310   -1.29007548541558
H         0.76933368965755   11.38844977729415   -1.79965761140263
H         1.07951923936005   12.14943813694867    2.70742131642589
H        -1.43002777348317   10.42658829846747    2.48138377481513
H         0.15198242500122    9.87203805970156    3.04671577898166
H        -1.31397132502629   10.52985367027976    4.95069723533750
H         0.11141205721599   11.56972631499718    4.85064998535768
H        -2.67133663203618   12.24214699844251    3.79542924897844
H        -1.92103406812603   12.92404079928817    5.24047471442818
H        -1.71874767546457   14.46588169283485    3.29462766240307
H        -0.13131959141263   13.93484293730540    3.86211991563614
H        -0.22623594400426   13.81156446137548    1.39354206903411
H        -1.65267917414087   12.76572638187777    1.49032982113039
H         3.21819267741605    9.48064636362654   -1.19625986156842
H         5.65825774707818   10.72916344289540   -2.54525215957782
H         5.61368799947011   10.09623201859181   -0.89071659583630
H         6.50611814470571    8.40073449879608   -2.47417609364390
H         4.99434477685072    7.86157130631696   -1.73864762507128
H         5.30369790474802    9.09456376148875   -4.51243925379694
H         4.96807731167974    7.39748598845567   -4.16222309673551
H         2.89151988490369    8.63799823568793   -4.76824092969167
H         2.81360157888659    8.01367391049116   -3.11789429147073
H         2.02075438787674   10.37454480277775   -3.22840232747839
H         3.57549528421393   10.85792629167452   -3.90776494389424
H         4.08139876598235   12.58578259193427   -2.80308435320844
H         1.78791187513428   13.33096773813081   -2.43285084330811
H         2.17698930023293   13.83164283630493   -0.77076764051081
H         3.26512909435485   15.02181083165232   -3.38382869152588
H         2.11011052620739   15.79248634158226   -2.29489589799806
H         4.40846905636899   16.68256935415220   -1.95603229136562
H         3.83743404514722   15.85141017607688   -0.50356799231806
H         5.63984442556282   14.63378591684845   -2.64164776909394
H         6.16535460114136   15.17781497950391   -1.04603482800842
H         4.65908271595086   13.52910863382978    0.04035153372999
H         5.80471391528419   12.73162436345921   -1.05830149271441
H         2.50357760933979    9.72744471670298    2.42369139765442
H         3.79224902468069    9.23240094972327    1.30476249408790
H         3.66179289709800   10.12171566222316    4.60533626472577
H         4.70316714109312    8.98725179439129    3.73903199761653
H         5.40938241666276   10.39114131372149    4.52815784467446
H         6.09694009253879    9.90665659305973    1.76935103201696
H         5.54006621212212   11.39062105507673    0.95935631020949
H         6.41026148750336   11.48563470051303    2.50160874626107
H         2.26345353026602   14.79481409921118    1.34046939624206
H         2.90733495548655   15.97974157696121    3.38340078729592
H         4.18364301618534   14.81000227776634    5.14532119633203
H         4.81880186856187   12.47170810347566    4.85571535609563

