83
CSD_code = ZUXGUU | q = 0 | S = 0 | Stoichiometry = C22H54N2P3RhSi | MND = 4
Rh        1.99978210136402    2.12453162220935    3.88963516761467
P         0.08800240129740    0.88296828925163    3.48879875101387
P         3.40822722758575    3.85060761197464    3.26442618446452
P         3.56502130440957    0.44879034762873    3.98211855424555
Si        0.21635123012307    3.80960094738040    6.14042921620809
N         0.25787912932831    4.52182234174514    3.53245526915697
N        -0.11869525957169    5.29453340786041    2.77023784484100
C         0.67680219522092    3.67038894585198    4.33514950035275
C         1.01858746887299    2.32504978515849    7.04528745627217
C         0.77468808903375    5.43679756261786    6.98599496213604
C        -1.68796781927585    3.81453645226238    6.38234304392163
C         0.22596407486937   -0.57836324417906    2.33809743508943
C        -1.03605432938238   -1.36508053153208    2.00849808306260
C        -1.00864974997680    0.22326899606752    4.83889647051716
C        -0.41671764854563   -0.89357916544062    5.68450072719462
C        -1.24623076645966    1.82732747834842    2.60930836574987
C        -0.79042426505624    2.36816691234824    1.26205231506131
C         5.25210783105908    3.65873805830476    3.04129102899929
C         6.01372013170606    4.74616392491714    2.29336095121982
C         3.36116315772169    5.54564498304308    4.01637488592378
C         4.09202573767203    5.62322495710169    5.34974983178833
C         2.90535903135599    4.28380752831445    1.53561319723208
C         2.94038487098301    3.04363559185012    0.65079713406818
C         3.04505522708508   -1.12364091343823    4.84303573442035
C         3.96889723109850   -2.33404097373140    4.79797027286120
C         4.55515284616102   -0.21195754057913    2.54969649414989
C         3.70751822088074   -0.84358632021767    1.45677975227494
C         5.01445207394140    0.85269744635744    5.08060387104991
C         4.58146602888251    1.67281817933671    6.28681330850615
H         1.74329545279013    2.65481018765472    7.78282537280267
H         1.53699768190013    1.68597939157124    6.32268148098777
H         0.27976123867716    1.71973685621010    7.56033470969787
H         1.83875150511636    5.45779788080678    7.19272084932053
H         0.25424877921600    5.57475637927051    7.92907812353184
H         0.54383560185785    6.29239584908189    6.35882052843135
H        -2.18575229513779    2.99196803125709    5.87830431232085
H        -2.10615977187890    4.73427728252668    5.98483322107712
H        -1.95082706033785    3.76363808802550    7.43483608754259
H         0.65598961652859   -0.17546373259783    1.41668188268942
H         0.97203549497365   -1.25470368593666    2.75802746254068
H        -0.78751946701315   -2.17469918751046    1.32273566872732
H        -1.78241379693440   -0.74038262610481    1.52552687091783
H        -1.47547845340599   -1.80609105574959    2.89948032907711
H        -1.22182472444023    1.08132358790736    5.47909591932352
H        -1.95088670951220   -0.10425956828948    4.39224462145172
H        -1.11927586448060   -1.18319987339504    6.46530664415395
H         0.50225277985319   -0.56334976402907    6.16035554977539
H        -0.20159674775032   -1.77481033621264    5.08320330012777
H        -2.12750574656781    1.19230628956004    2.48953518134558
H        -1.52263596007503    2.65809985785245    3.26146164433953
H        -1.52471078537025    3.06631368880676    0.86537519523847
H        -0.65198150789388    1.56732317688527    0.53821836170926
H         0.15152659366172    2.89908884595456    1.37742348371641
H         5.66660074833061    3.55670963016491    4.04719393124177
H         5.39994918806511    2.70370433592039    2.53165139870081
H         7.07893366012195    4.51563001909881    2.30821290538871
H         5.87821728718748    5.72086013423942    2.75407808830955
H         5.70395002215210    4.80710161088146    1.25346576838162
H         3.77906170808635    6.26099599482306    3.30371953149264
H         2.31133053738590    5.80169625223001    4.16280704108052
H         3.91255426754391    6.58707257482381    5.82333499415116
H         5.16608637421628    5.50461803933730    5.22337391662173
H         3.73536687569467    4.84135144800350    6.01758602100119
H         1.88797787411220    4.67854510782699    1.58619146811485
H         3.54285169205213    5.07514141344398    1.13704363817800
H         2.44570704339259    3.22629365485487   -0.30160186920998
H         2.42614818690712    2.22541123784303    1.16645591669929
H         3.96445167524194    2.73246367098384    0.45176742998404
H         2.88718240808950   -0.82403657353835    5.88423911106727
H         2.06920632669012   -1.40470479922127    4.44789748714173
H         3.56718879508198   -3.11586300173471    5.44171741851245
H         4.97006997297773   -2.09827211670229    5.15157891111539
H         4.04585479032114   -2.73799218867452    3.79179958102863
H         5.09523783684331    0.64007600107129    2.12933910411624
H         5.29610720734923   -0.92087317509879    2.92620637109176
H         4.33290210883017   -1.15381133126552    0.62061552150987
H         2.97684330761585   -0.12608389608577    1.09123430664850
H         3.17554348653497   -1.71723783222644    1.82604107953597
H         5.49790793563145   -0.07186484699639    5.40421062492333
H         5.73970560926871    1.41274806584279    4.49008353584682
H         5.44332611418698    2.06846845254482    6.82252037013526
H         3.99965777059156    1.06870460469257    6.97983768391194
H         3.95888556335529    2.50751926857177    5.95487610302724

