65
CSD_code = ZUXHEF | q = 0 | S = 0 | Stoichiometry = C26H38Ti | MND = 12
Ti        1.42772000791824   15.32300965009129    3.65487633876818
C         0.40080134314342   15.53119144169571    5.41449300384808
C         1.61187691496836   16.03005002318986    6.07087534780400
C         2.60745285982791   16.05006008074712    5.16803728281117
C        -0.78793357349867   15.35622129854175    5.97857289678973
C         1.64773058511154   16.45480440111739    7.52178320990452
C         4.00586278211023   16.53660620204544    5.42068959137481
C         2.72823372437670   13.51559557930466    4.23860303667543
C         1.38553982367586   13.19804954445860    4.58710204145130
C         0.62904471347608   13.13046370098424    3.38517060824064
C         1.50765570616374   13.34689807142089    2.29416227474102
C         2.79425850930045   13.63787891429413    2.82137617921500
C         3.90339681191174   13.32336437366989    5.15166383441749
C         0.96433614873337   12.67310758944023    5.92684461838434
C        -0.78263294493662   12.63009135798814    3.29632568544141
C         1.20986049330095   12.90632535518863    0.89012707606741
C         4.08328270684065   13.74215848662630    2.05754592588928
C         1.32197851332385   17.65105968999784    3.36227600404300
C         0.01791380274295   17.09955232305029    3.22353435858055
C         0.01576615521716   16.26295494026254    2.06972838729324
C         1.31107720568329   16.30685032999387    1.49536897717736
C         2.13119937142768   17.11980803708851    2.32466344972400
C         1.64350756231877   18.80240685960399    4.26707547443772
C        -1.21109041476956   17.64917446105500    3.88574235309747
C        -1.24162502671669   15.72555927169722    1.44986283393081
C         1.67975243833858   15.97274551371221    0.07935984766810
C         3.51786258852064   17.56376329458911    1.96039833456455
H        -0.97885705913818   15.57229997226151    7.02657821517750
H        -1.64932669110104   14.99037515628570    5.43218499152101
H         1.39244940909049   15.61571852280658    8.17009422492493
H         0.91955457067608   17.24622220506625    7.70299783424937
H         2.63472146309161   16.82090553956076    7.79577919625112
H         4.66469674797947   16.33048629749872    4.57511600715823
H         4.43474968702408   16.06283332273884    6.30781562936367
H         4.00822553674780   17.61604470720845    5.59587789311457
H         4.14554029672394   12.25710869896770    5.19737169980753
H         3.67595305307005   13.65818139168392    6.16183337977378
H         4.78399359589980   13.85118064740648    4.79366460546957
H         1.31657390527928   11.64280189472901    6.03419817181825
H        -0.11742826871569   12.68043669662987    6.03353472900412
H         1.39538992019136   13.26294815687046    6.73426555146231
H        -1.42209114286288   13.13343490991936    4.02196458480867
H        -0.81031136643281   11.55902385552135    3.51464251252837
H        -1.19492037763132   12.77979974877267    2.30076301626553
H         1.16715768261490   11.81309292975187    0.87672886639429
H         1.98557702643966   13.21124590720164    0.19365773223857
H         0.24969983122291   13.26992966421678    0.52932489703813
H         4.61567283136399   12.78755556085463    2.09729699422095
H         3.91614985602573   13.98274250951602    1.00928223390907
H         4.73555931807852   14.50352713128297    2.48843906244640
H         1.05202256947210   19.66998993101594    3.96380248817963
H         2.69464741722698   19.07356611689897    4.20585147666758
H         1.39930381115904   18.57421880691870    5.30450336009899
H        -1.00714160352825   17.94785654277560    4.91168871193556
H        -2.02068165071729   16.92322015007118    3.89073012216699
H        -1.55043501300282   18.53093972189442    3.33294320297397
H        -1.03095238379793   15.04060529942629    0.63112099625401
H        -1.83259125718577   16.55252801884909    1.04596369741228
H        -1.85545344301394   15.20887190303882    2.18849571238784
H         1.73078006799184   16.90564260806369   -0.49047039307457
H         0.93921010836902   15.33791827579217   -0.39825085934426
H         2.65667643520500   15.49816988197586    0.00271060824512
H         4.10569412637678   16.74021555578698    1.55570898338115
H         4.04164218854162   17.97359426819194    2.82130581740617
H         3.46721999266539   18.34261670070492    1.19362507405150

