81
CSD_code = ZUXHIJ | q = 0 | S = 0 | Stoichiometry = C33H46SiTi | MND = 12
Ti        1.60699803636065    3.56004996317671   -1.97451906154749
Si        1.55689396854911    7.00035961044413   -0.29092324184691
C        -0.18262782734681    4.17222039490510   -2.75323299607705
C        -0.02460325112577    5.47044390911332   -2.08634197118624
C         1.11217971454929    5.51091256085402   -1.35437077812105
C        -1.22266889351928    3.84128649674546   -3.51240540828681
C         0.24141758402511    7.30230060349424    1.08080373848308
C         1.67290440578668    8.73052403626440   -1.11985939902976
C         3.27255844129733    6.72478786778353    0.53182432130223
C        -1.02277967984486    6.55052636695949   -2.26988278975997
C        -0.75017323873861    7.63482667471632   -3.09845860104517
C        -1.68670124125980    8.63382903264831   -3.29236104778753
C        -2.91645503521507    8.56690310566095   -2.66031001543893
C        -3.20397972791739    7.48864722673436   -1.84094480312491
C        -2.26901791410211    6.48684998490274   -1.65291382770999
C         0.22335671021072    2.89238789092572   -0.22239233412027
C         0.23917925227996    1.82793317171124   -1.16471407715738
C         1.55169917593476    1.28543552321596   -1.19531647444741
C         2.35876964266798    2.03668804932018   -0.30269036973640
C         1.54007119071634    3.03536707832639    0.29435372367966
C        -0.99535084961416    3.56208932486946    0.33363621831812
C        -0.95929096583386    1.14167089385104   -1.74945995353909
C         1.84283889984586   -0.07459707159805   -1.76023542020886
C         3.69820099683138    1.64935396045386    0.25673320062789
C         1.89475480118252    3.77843992630000    1.54719363250571
C         2.33559135903104    2.81323188854300   -4.11037448680561
C         3.44609608037285    2.58077320478381   -3.26286909201238
C         3.82813865634085    3.82477133344758   -2.69315740312849
C         3.01113587940460    4.84273789423507   -3.26224453651938
C         2.08508360827639    4.21585072559353   -4.14334169678870
C         1.68089949163158    1.83059074182485   -5.03762921159391
C         4.33181962302537    1.36896920733291   -3.29987516837659
C         5.10570551042333    4.09705427087720   -1.95170393305160
C         3.34713991404463    6.30262271648458   -3.26566437261722
C         1.28984958373906    4.93049891882714   -5.19576705300155
H        -2.05280750279021    4.52205245974276   -3.68819558744992
H        -1.30940933270072    2.88595346805781   -4.01406333582427
H         0.17157024139498    6.49629427683589    1.80506654130128
H         0.47107839879397    8.20994353423498    1.63119385743826
H        -0.74159768524214    7.43020047501990    0.63681251811211
H         2.34094044338086    8.75164572781138   -1.97431452842033
H         0.69746516949880    9.06969732953735   -1.45242668017126
H         2.04414976133885    9.45679431497189   -0.40152333936357
H         3.99696063182727    7.45431090705647    0.18283017287152
H         3.66467664853945    5.73594933214752    0.31241044644920
H         3.21445563242007    6.82225915746562    1.61102254682081
H         0.20699894171984    7.69465090160746   -3.59672075232565
H        -1.45627924554803    9.46889010997674   -3.93884497576097
H        -3.64773190167024    9.34829224472439   -2.80829459766498
H        -4.16384742240714    7.42701957929390   -1.34721197639663
H        -2.50282956275295    5.64737305433842   -1.01504508984094
H        -1.28685910717212    3.07264936993555    1.26706831032157
H        -1.82876758228078    3.48851131113644   -0.36245776540922
H        -0.80380914297707    4.61304334723387    0.54398311959188
H        -1.25808711567150    0.31593918817815   -1.09706213179355
H        -0.73784110685974    0.72658773204739   -2.73188182054864
H        -1.80217583266853    1.82290046912509   -1.84041431998791
H         1.25073320401830   -0.81374491581044   -1.21324170265054
H         1.56447045957635   -0.15159658189391   -2.81052113718098
H         2.88895387104284   -0.34536925178247   -1.65116790243046
H         4.16433613482442    0.85335329701461   -0.31866975228510
H         3.56336947840476    1.27982050806706    1.27706839461501
H         4.38307806326031    2.49548786130650    0.30285163336628
H         1.58608643453939    3.18307965861404    2.41219664310374
H         2.96623718469367    3.94579272905226    1.62403198190094
H         1.38788836589267    4.73675747194880    1.59967285605980
H         0.59442244643818    1.88096972273196   -4.95623125850337
H         1.94950707502261    2.06106367814604   -6.07137886980604
H         1.99868286063385    0.81071667576818   -4.83218383238839
H         5.16112757322718    1.57426583947955   -3.98338796700477
H         4.76375617290952    1.13353723707466   -2.33052623790376
H         3.80992786275507    0.49295987951274   -3.67360260650397
H         4.94497394251860    4.75763438638130   -1.09903875853302
H         5.81530023719570    4.59239667819640   -2.62006311975642
H         5.56740621085683    3.17641610346163   -1.60211718957621
H         3.79139024555370    6.61117190715186   -2.32285127276459
H         4.06715712115509    6.50203943005066   -4.06568096021667
H         2.46193084315762    6.90566445485728   -3.45033706271035
H         0.52345955132161    4.28588339706836   -5.61892065694054
H         1.96243113688201    5.24264597971326   -6.00046545576938
H         0.80438629398669    5.81885807954978   -4.79695168891233

