51
CSD_code = ZUXKEI | q = 0 | S = 0 | Stoichiometry = C17H29ClIrNO2 | MND = 8
Ir       -1.71583271052268   -9.90111256918456  -11.46589952136140
Cl        0.35049101053811  -10.42459807560703  -12.41939546240676
C        -2.67813891432196   -9.51957579797794  -13.43251856639079
C        -3.22651814152766   -8.58685000307432  -12.51446865038516
C        -3.91655022010221   -9.32403459603234  -11.47960200676695
C        -3.80548910545886  -10.70663949146585  -11.77962524876708
C        -2.98744088045503  -10.84560301238600  -12.94824554629590
C        -2.01965000610310   -9.23246506867790  -14.74256855783451
C        -3.27538047022668   -7.10325498158324  -12.70206387556842
C        -4.80340352908546   -8.74904845672833  -10.42206833447378
C        -4.42685115461165  -11.83023010331944  -11.02152902308695
C        -2.73325545207977  -12.11383303159665  -13.69526389946281
N        -0.58976951323423   -8.60116346511748  -10.06891238174812
O        -1.27951209594826  -11.13501566101250   -9.87891224754899
O        -0.02928731957125  -11.55779446913506   -8.11964176472610
C        -0.35839626736553  -10.84367094952942   -9.04160068593574
C         0.35568194839480   -9.48438106117993   -9.32856345296151
C         1.08711109098149   -8.86699014853685   -8.11490445010035
C         2.45676009370314   -9.54044806417901   -8.00310338121994
C         0.37140171257248   -9.00228924200810   -6.76865983258015
C        -1.55369311640377   -7.96729425383987   -9.16858172450998
C         0.12982536215638   -7.56306004002732  -10.81313190417676
H        -2.62338951939642   -9.64075891529452  -15.55312668601716
H        -1.03610798644600   -9.69863736859262  -14.78275399175149
H        -1.90018072587156   -8.16427769351520  -14.89951164601929
H        -4.16191211566785   -6.83895079461972  -13.28123457824649
H        -2.40072553340558   -6.74695644700322  -13.24172603190297
H        -3.33263154699955   -6.57724819934556  -11.75079837193779
H        -5.84864597970584   -8.88926476353290  -10.70338215625623
H        -4.63442744145370   -7.68317223162061  -10.29242080068628
H        -4.64373813018119   -9.24512385596862   -9.46673664354751
H        -5.25077109464557  -11.47364256990728  -10.40897839451776
H        -3.68793958172755  -12.29454492390582  -10.36819516110457
H        -4.79623023626046  -12.58927430034100  -11.70822710111689
H        -3.53319862601426  -12.28700247951743  -14.41803114270664
H        -2.68938067313846  -12.95857720466328  -13.01287260209671
H        -1.79059176639909  -12.05558234466432  -14.23353027660009
H         1.12509452434388   -9.75910998186004  -10.06199342331236
H         1.25041563431238   -7.80038757164151   -8.31616997460796
H         3.04361645310766   -9.39089440503276   -8.90695251955739
H         2.31967362839896  -10.60657557348657   -7.84613489435833
H         3.01176979570764   -9.13302433992051   -7.16113827777191
H        -0.58831109042193   -8.49492663191667   -6.74321318756129
H         0.99766518110886   -8.57140512479177   -5.98975226019151
H         0.21497519223714  -10.05182536984344   -6.54225721398065
H        -1.05818381352048   -7.26354945954173   -8.49434585315322
H        -2.06266743372734   -8.73006998441523   -8.58279840112300
H        -2.28914169324732   -7.41412498533572   -9.74919071131680
H         0.70940944529730   -6.92042804181997  -10.14439486250851
H        -0.58477229871188   -6.94329138597697  -11.35262409803239
H         0.80082511107664   -8.03182050973564  -11.53084821969058

