39
CSD_code = ZUXLEJ | q = 0 | S = 0 | Stoichiometry = C19H12O7W | MND = 6
W         3.35926026399499    1.23983786579083    5.19607727762371
C         3.97199511586591   -0.46761629624043    4.05607968650604
C         5.04082454790144   -0.59682096255571    3.14650704117353
C         5.35719267898797   -1.79023923008778    2.52731640477399
C         6.43264317018698   -1.85235030122011    1.53330712622265
C         7.63998732613875   -1.19286147419790    1.76131152137985
C         8.64704971226062   -1.23704778784525    0.81593646072439
C         8.45662998227561   -1.92226436350823   -0.37318165034537
C         7.25443081778619   -2.56765773889516   -0.61335376578557
C         6.24860325109077   -2.53977228773332    0.33402907398716
C         4.57260505798851   -2.93606906614435    2.84615885444614
C         3.50755694504710   -2.76138355838610    3.69464656777087
O         3.24827711665077   -1.58387565966093    4.25720340676028
C         2.56998476664808   -3.84145772872285    4.11761465311385
C         4.88838819324955   -4.30078549013495    2.31238935667635
C         6.25215970128730   -4.81719797895750    2.68409151229683
O         4.07950169205526   -4.95455399596109    1.70271716444412
C         4.28210607783012    0.39745625826136    6.75657753764455
O         4.81773838844980   -0.15191069033320    7.60344221447400
C         2.77559240767509    2.81220237010788    6.29220135330522
O         2.44596847760723    3.70496337223011    6.92421473031911
C         1.68090838892245    0.27958335274587    5.70200698020769
O         0.72266893398607   -0.24869609434068    6.02537185151963
C         5.03003847909869    2.22276606490221    4.72116371302205
O         5.96742614915998    2.82938470680169    4.47854043320248
C         2.46772666289649    1.95949268112401    3.55407648984287
O         1.98140705281347    2.32148761467808    2.58689772109658
H         5.61266752834011    0.28831746561183    2.90721413862725
H         7.79439734190286   -0.66953495777866    2.69356338947475
H         9.58271622055665   -0.73356161331392    1.00694529708591
H         9.24284417398728   -1.95115732594178   -1.11218844960438
H         7.09854290042233   -3.09491962016557   -1.54225329211815
H         5.30715157022421   -3.02945179314504    0.13487246598068
H         2.29915605479982   -4.46709521162929    3.27176546750695
H         1.67919130832278   -3.39346158211194    4.55036784769708
H         3.03914901911485   -4.47334430057276    4.87185312096831
H         6.18305072042011   -5.21808648167715    3.69591371103043
H         7.00390617296094   -4.03450371565620    2.67934024932604
H         6.53945563108821   -5.62461444532662    2.01596233761946

