108
CSD_code = ZUXNIP | q = 0 | S = 0 | Stoichiometry = C54H49O3PW | MND = 5
W        -1.86130223914596   16.06551065946554   16.44594666878112
P        -1.38018287984061   16.26089499009722   18.90944628614857
O        -1.83673229432794   17.71936231568083   16.15648501460821
O        -2.65003159601236   15.14171392487785   14.88387347967673
O        -2.59577911156137   14.45895084419070   17.44457776396384
C         0.04116904690558   15.47797428222315   16.30836735281007
C         1.37942829105293   16.08699608333681   15.97840641389327
C         1.27043907498769   17.61203601929730   15.87276643990834
C         2.43635274488183   15.74355948939706   17.04455746344709
C         1.85488240091776   15.49800585559062   14.63607284487074
C        -2.79711546922945   16.16075849056361   20.07668565464321
C        -3.55905497736791   17.30856628692568   20.30082418342934
C        -4.71381122588266   17.24711091505035   21.05665912059215
C        -5.13766982771240   16.03442934428895   21.57856470828190
C        -4.39257163211438   14.88959378735839   21.35359692680850
C        -3.22725463363428   14.94960903527497   20.60982497933469
C        -0.59658408332874   17.79186424995693   19.53801990966394
C        -0.54976308391676   18.88799832898417   18.68276628127389
C         0.00810129370111   20.08040674133638   19.11168061295983
C        -1.99573330347310   14.73935738812477   13.79948301773847
C        -1.36934658677175   15.66864115836955   12.93403500322625
C        -0.65623727580411   15.20751537825458   11.83135156505363
C        -0.53684401385404   13.85752208808544   11.56267046184282
C        -1.15721793180095   12.94481408096925   12.39391284556664
C        -1.89582910615024   13.36221227510743   13.49390869352173
C        -3.65242738649757   13.72827187810835   17.73858830846999
C        -4.95202214680661   14.17926459487777   17.41265591612714
C        -6.06216291029082   13.43918225504491   17.79558267992111
C        -5.92215241185371   12.25777595824956   18.49841263758186
C        -4.65485108486853   11.78705875343183   18.78772599018450
C        -3.51925553528950   12.49016704083409   18.41217395991227
C         0.51719918028242   20.18506003914955   20.39600477813574
C         0.45970576319146   19.09889819732419   21.25488747364163
C        -0.09814717733461   17.90599150288137   20.83168017141666
C        -0.28049018199352   14.96063148131893   19.60845688346384
C        -1.48780499186297   17.12036303367906   13.15657755087545
C        -2.70604249321759   17.69124922310819   13.53074020354540
C        -2.83264138228374   19.06629542466942   13.63312340250428
C        -1.75250489001740   19.89369181556401   13.38470788644410
C        -0.53940383607707   19.33967810935526   13.01455640110373
C        -0.41042913327453   17.96976370103019   12.89408140789653
C        -2.59257683892621   12.35257863398687   14.30837008511035
C        -3.93303147460215   12.52108182931965   14.64405440491820
C        -4.61089854513810   11.54015671464130   15.34279584355275
C        -3.95676975462285   10.38504013483606   15.73588261239169
C        -2.62133697986673   10.21029764575681   15.41608529427183
C        -1.94635915222316   11.18183322401489   14.70024691736220
C        -5.13094794997684   15.40807949682643   16.62232513853466
C        -4.51649800711056   16.61424677983077   16.98722644479303
C        -4.78783090861357   17.78085746091136   16.27546305487512
C        -5.64613982253622   17.75185948200506   15.18983415195457
C        -6.23482596931210   16.55595361306845   14.80669468562195
C        -5.97993292921355   15.39753590803571   15.51368903629220
C        -2.18694279734127   11.95034227426994   18.72016087069146
C        -1.92994508756916   11.34206008845129   19.94870919498010
C        -0.67898412233522   10.82752572214528   20.23487164389250
C         0.33912070653949   10.90774293379206   19.29928603279489
C         0.09676284832688   11.51140200158260   18.07633228416453
C        -1.15148200155924   12.03306066141108   17.78994724683263
H         0.18370167762136   14.39165834258659   16.48356517936741
H         2.12076739854398   18.02704070095778   15.33502414510015
H         0.34832490682575   17.87900168175802   15.35534883687962
H         1.24355577691065   18.05218976171766   16.86772433350540
H         2.51151241000401   14.66699055396415   17.18787581484456
H         3.41229702234659   16.11750247065763   16.73974500023214
H         2.17782536771159   16.20753547584493   17.99507080351955
H         2.00707341476356   14.42373280735473   14.72503163992243
H         1.10557775892553   15.66906870672970   13.86890891933003
H         2.79460304854307   15.95319068750394   14.32726541084581
H        -3.22965146328736   18.25084934246013   19.87936828665244
H        -5.29023013815606   18.14340983812450   21.23292042074848
H        -6.04723355419416   15.98370117888200   22.15802012962159
H        -4.72133514878769   13.94225707813236   21.75465269652534
H        -2.65202750366790   14.05179832948723   20.44467253505620
H        -0.95524543099194   18.77753131704120   17.67950559137249
H         0.04692703422617   20.92772541060760   18.44347968351115
H        -0.20723902948900   15.92731150560071   11.16220430781309
H         0.01974948936835   13.52018132901477   10.70135397003421
H        -1.09974736893375   11.88773052815503   12.17619119504241
H        -7.04721003080793   13.81207741796791   17.55114846138583
H        -6.79399498490551   11.69814186054473   18.80224623753235
H        -4.53796369348649   10.84061941491091   19.29600820828088
H         0.95549061288643   21.11330401647882   20.73178195953352
H         0.84881445547215   19.18342228347191   22.25914835354150
H        -0.15260143357778   17.06805509422341   21.51130561761046
H        -0.54880698481016   13.99463433147311   19.18387148710832
H         0.74357662130072   15.19127770144518   19.32153608880019
H        -0.35969548504502   14.91897895350028   20.69428862644353
H        -3.57196827096800   17.05740688360969   13.67566434194411
H        -3.78328734361870   19.49896266955443   13.90611673895384
H        -1.85582266784382   20.96532045578547   13.47581492294550
H         0.31039848139449   19.97795182380453   12.81886592978930
H         0.54283139014904   17.55277475558952   12.60516122184884
H        -4.44176924729681   13.41983748157263   14.32807358385723
H        -5.65529411459982   11.67357283520954   15.58479901510961
H        -4.48731451923926    9.62385985917807   16.28879739476065
H        -2.10324082795098    9.31365524468435   15.72562074011862
H        -0.90272629779699   11.04326279572900   14.45415894510706
H        -4.01502568535464   16.69059047634611   17.95079106098975
H        -4.34826704287671   18.71420682631818   16.59917077007280
H        -5.87392173475071   18.65788027943181   14.64852800160552
H        -6.90483050702024   16.53172312545330   13.95909079584256
H        -6.45470766475982   14.47151269553295   15.22237372658158
H        -2.71500810693273   11.28404171277028   20.68964735799835
H        -0.49680032818909   10.36144114780396   21.19275415439487
H         1.31485277478629   10.50193778456387   19.52259028451908
H         0.88509072283084   11.57500300140423   17.33978970181531
H        -1.33706593145463   12.49803839871437   16.83231308504060

