173
CSD_code = ZUXPEP | q = 0 | S = 0 | Stoichiometry = C87H75N5O5Zn | MND = 5
C        19.47125911896893    8.44638634847218   26.21141373385808
H        20.08697821409379    8.09706399802696   27.02692343084261
C        18.28187177364246    7.80268023448585   25.91476478783899
H        17.96732977368220    6.94986685506492   26.49787949482874
C        19.86821911955193    9.53935883117771   25.45992954958704
H        20.79505496510217   10.04475348301469   25.68748471246003
C        17.48508613637143    8.24942842705514   24.87679715271541
H        16.55795216026821    7.74976040060253   24.64589681158279
C        19.08708980318825    9.98761331080436   24.41060019893734
H        19.39649156592691   10.83726373440153   23.82340356976118
C        17.89079444818833    9.34270880122584   24.12039848019304
C        16.41534412740183    8.94862903339163   22.16478700685820
C        16.85469347266342   11.15096468097271   22.76966994068128
C        15.68584664369864    9.83373934340723   21.24112483576123
C        15.95229508023816   11.16438186081653   21.60508617310851
C        14.87551847386256    9.51522021198973   20.17770371073896
H        14.73616396746689    8.48579696061255   19.90098619262432
C        15.42447094112160   12.23002002246843   20.91529559199454
H        15.69405445019462   13.23268207975931   21.19391089058557
C        14.28348936573195   10.58403688037410   19.49911051245438
C        14.56209450115182   11.92759111285120   19.85748671603202
C        13.40405165923915   10.65614174175590   18.35171510870738
C        12.78731053555181    9.56333010701448   17.74010867363383
C        12.89245783552872    8.24673451639513   18.40842832530010
C        12.21375896724075    8.02165245377114   19.60226414964002
H        11.57531201281974    8.79721961983112   20.00012523051929
C        13.68640855259189    7.23247321192555   17.88667555873725
H        14.20251659607135    7.39051180567996   16.95071226920747
C        12.37415513280478    6.83268049106787   20.28578743005889
H        11.84951295131576    6.68762284104748   21.21814220275336
C        13.85119279840625    6.04903186714745   18.58358769409388
H        14.49797896528041    5.28220795016450   18.18092403778801
C        13.21958577635688    5.83950423664541   19.80314772958680
C        13.47376022642076    4.58086526754887   20.59244008230738
H        14.19426649518178    3.97029357015974   20.03691731591241
C        12.18900790696038    3.76685847844021   20.76087035695135
H        12.39720111600178    2.84340726383323   21.29679571865703
H        11.76733973081767    3.51619494035846   19.78945902223144
H        11.44619199693662    4.32855317700143   21.32214235160617
C        14.08689821159386    4.92364257528934   21.95290635274787
H        13.36857615757487    5.44902051301309   22.57780146668939
H        14.96130341423351    5.55936505960122   21.83155760501745
H        14.38699266158806    4.01398097485996   22.46851492598954
C        12.04592185980680    9.61550556725131   16.56386981182343
C        11.39397966033075    8.47346830322543   15.98540854218088
H        11.38210771709314    7.48924874788785   16.41119569505179
C        10.81674451863567    8.89504183022194   14.83650161686410
H        10.24034240020775    8.32264903750467   14.13605089800826
C        11.11544180982477   10.29534359913785   14.71328758324315
C        10.71658125315261   11.07316324830904   13.62363145418239
C         9.94842233967478   10.36544610943248   12.57162852685136
C         8.57070021216765   10.52666696670068   12.48678296121877
H         8.06723097709722   11.17074180415348   13.19371007497077
C        10.58162413982599    9.52223070709569   11.66517012740800
H        11.65104286625438    9.38322207919014   11.73143202452032
C         7.85059633516786    9.87938097339198   11.49976163455577
H         6.78007173187323   10.01968268869107   11.44507931924284
C         9.85655766282252    8.88511839570243   10.67638692226368
H        10.37334726769027    8.24726915065850    9.97475352042748
C         8.48065703845262    9.05781449235559   10.57376627388181
C         7.68658498845894    8.38459678911989    9.48239781979783
H         6.62919379348805    8.63263687827188    9.62889830114944
C         7.83165024993276    6.86294705929734    9.55053546774564
H         7.18924222009309    6.39154124651606    8.81003772091747
H         7.54914659863442    6.49848781370884   10.53600935890263
H         8.85722631472568    6.56103130233176    9.35394422168458
C         8.11371072005714    8.91236402014175    8.11097156123256
H         9.15627291975722    8.67410460227692    7.91514743196994
H         7.99639746119791    9.99323094733365    8.06545347422317
H         7.50632641786826    8.46378945812612    7.32797991824461
C        10.96753774875027   12.43155852591489   13.47212097392848
C        11.50270135025548   14.51366921784660   13.97223616636054
C        10.67617858822243   13.21478741339674   12.28388180815790
C        11.03548202958837   14.54037976978556   12.59756423613622
C        10.19837634376479   12.90657504766604   11.01866180074985
H         9.91700550568170   11.90375484815267   10.74833892131889
C        10.94165445111435   15.53237577124226   11.63326415527771
H        11.28419594182672   16.53582948236220   11.81801616218630
C        10.04840289083763   13.91116307086203   10.07206472050159
C        10.43401980423818   15.23028748843791   10.37713286879094
C         9.45994269481495   13.55793720719482    8.76988827625644
C         9.92332449185981   12.44987518302251    8.06192147835860
H        10.73891560334794   11.86572492419037    8.46257046789059
C         8.41071070636176   14.29244634382963    8.23081855257223
H         8.02092726249423   15.14115234379109    8.77298845418931
C         9.37144495944309   12.10637268786112    6.84781946335014
H         9.73524858059953   11.25910336123000    6.28814373282378
C         7.84251507735573   13.94983886606317    7.01724883020197
H         7.02795655887075   14.54530569952142    6.63583889717309
C         8.32324491554278   12.85410031354584    6.30932416816662
C         6.80051586359291   13.14926103328318    4.50382646195806
H         5.89997770430831   13.14778199455892    5.12690199888554
H         6.58890088807424   12.63638043408719    3.56684504308335
H         7.09374894673975   14.18278684212796    4.29211995390889
C        10.34321605670055   16.31893592993339    9.39067741918837
C        10.83801499178931   16.18110336676796    8.09429839091116
H        11.30099091628769   15.25280096521450    7.79577488053333
C         9.77486977888307   17.53394296340094    9.75387154744058
H         9.38540766199447   17.66004895229192   10.75421176695294
C        10.75913123126997   17.22251431002220    7.19769123088198
H        11.14723266003237   17.12530838194857    6.19608417548020
C         9.67759346658156   18.58209154391243    8.85513752485509
H         9.20977449932603   19.50146378305015    9.17165144835477
C        10.17352088088525   18.43564601770294    7.56516338175163
C         9.59928459455078   20.65505664290498    6.92615754950328
H         8.54089388206626   20.58024074279697    7.19760199556808
H         9.69629774847423   21.26077734647112    6.02647861580105
H        10.15121946687017   21.13101390700572    7.74341244477049
C        11.83873278569227   15.63015421484771   14.72908560187617
C        11.62133571840343   16.97666473970409   14.14948453819638
C        10.33625225675199   17.48751316216774   14.00871089860868
H         9.49084156516253   16.89787470021395   14.33386395422005
C        12.69873263777986   17.75596823426464   13.74220160627687
H        13.70168290508841   17.37258565616508   13.86118448948850
C        10.13654354408733   18.73083254926590   13.43744204389280
H         9.12939657657126   19.11004667578498   13.32896953413241
C        12.49184706215766   18.99624399288219   13.16991197718195
H        13.34509851078819   19.57603513813110   12.85131647454755
C        11.20719224728246   19.49753906766958   12.99446806255390
C        10.97261358884525   20.84337082987555   12.35472726667550
H         9.89327461732505   20.96477175444160   12.20612544815123
C        11.65658116096983   20.93898697725140   10.98924785122646
H        12.73820042826703   20.94890349984446   11.09574422592594
H        11.35892610597699   21.85699387672464   10.48584740538726
H        11.38270137037989   20.09043908568944   10.36540666703227
C        11.45551426641337   21.96229642149363   13.28103109214260
H        10.94214886768705   21.91069513071184   14.23890123797608
H        11.25924703422312   22.93462530637915   12.83427458744030
H        12.52445186530563   21.87487606757022   13.46055773994167
C        12.36453753154347   15.59892222810219   16.02345805202993
C        12.65928876291522   16.77923856663938   16.78701613366154
H        12.47482589250172   17.78564614223984   16.46526889022700
C        13.19603105555783   16.36234740805890   17.95767749051139
H        13.53776512354626   16.95980985872140   18.78009320903877
C        13.23315762304645   14.92764693619448   17.90822796092100
C        13.78700325692126   14.13896709975570   18.91268980971603
C        14.34513072249587   14.85150483061908   20.08468631946976
C        13.67480378465579   14.82045960397583   21.30328286730247
H        12.72644836407229   14.30704013227610   21.37209868581940
C        15.55186228698121   15.53572363023751   19.99959011253993
H        16.07100191716947   15.57832146123994   19.05300924535440
C        14.22632907521308   15.41550213461589   22.42109587012645
H        13.69498453421174   15.36513768506592   23.35953693886847
C        16.10295290538334   16.11893552241388   21.12592123388716
H        17.05650284043769   16.62244145680741   21.05022667192903
C        15.46169375719639   16.05063880834989   22.35652138321463
C        16.10885174179585   16.62498385318213   23.59068215107035
H        17.08199834202921   17.03903315708781   23.30365857898943
C        15.26434982724667   17.75743291062963   24.17885637174028
H        15.11244509338551   18.54163647290608   23.43967126376306
H        15.76417878681072   18.18891257697400   25.04323999152243
H        14.29047687461587   17.39082732411338   24.49421863141462
C        16.34584938801488   15.52245264814566   24.62622451413951
H        16.92351855153724   15.91045928354075   25.46216088744870
H        16.88885262808869   14.68985777868293   24.18458764091031
H        15.40162228021912   15.14452712389243   25.01028799197539
C        13.84985529872269   12.74510585779338   18.89789425587696
C         8.97844647598674   12.58362952996991   16.58971204138363
H         8.83987631027983   13.19197748730242   15.69205405949723
H         8.11872872299121   12.70944134383105   17.25449363696566
H         9.05782732352991   11.53889479146450   16.29744080281066
N        13.21649077459900   11.95198866667944   17.99657936702070
N        11.84552820467354   10.70773693030121   15.77907609092399
N        11.49177077326629   13.23559018859245   14.43457812423056
N        12.69757167373000   14.49222258610261   16.73505651337445
N        17.08303670740701    9.79922516891131   23.05352492488576
O        17.30424409193335   12.08183535374294   23.39177295968494
O        16.46224998890808    7.74299467969326   22.18252584270351
O         7.84708051325595   12.42802252061133    5.10498288179876
O        10.14069240813902   19.39896487832602    6.60049122864026
O        10.17998770708798   12.91515479052933   17.26181251246479
H        10.13598297840552   13.83838156115926   17.53564741023570
Zn       12.21317596331776   12.59445413524315   16.29034641851680

