63
CSD_code = ZUXPAJ | q = 0 | S = 0 | Stoichiometry = C25H34OSi2Zr | MND = 12
C         4.44359528282409   -3.17634137415515    3.12018855585568
C         4.71513548374552   -4.49357628692532    3.20600028695404
C         4.12149663675197   -2.01183008971109    0.22443082614274
C         2.92238392719582   -0.47199150743542    2.59706897682979
C         1.58932319591881   -3.06943498842172    1.73003737803257
C         5.03015698981855   -7.42621107822132    2.67027162074197
C         2.14529384648562   -6.36652037146674    2.74810969227231
C         3.99595974460802   -5.81262421174113    0.31160250226768
C         5.28633921578223   -2.23502647615371    3.98472365421274
C         6.29003726598995   -1.53812803787604    3.07951541961696
C         6.96847013466902   -2.27185660266078    2.11175874147041
C         7.92761939927667   -1.66682828822353    1.31906557499271
C         8.21931335140257   -0.32203448771370    1.48184868672311
C         7.55137879596700    0.41243056971230    2.44611685668953
C         6.59480971454419   -0.19392789148575    3.24297548072112
C         3.73328817807454   -4.72121213524438    6.16824709366948
C         4.02967097647185   -6.07764221556103    5.89409680087302
C         5.15045164352271   -6.44183330513442    6.67040965557478
C         5.55530920052473   -5.30653884757104    7.40965662006711
C         4.67022134687559   -4.25204924746701    7.10727007797444
C         8.45505281813847   -4.66629502830099    5.63918788451885
C         8.35460248628114   -4.34613141428240    4.27156155629532
C         7.89401268895388   -5.49432680533978    3.58352598214543
C         7.75408316762278   -6.53737764081905    4.53541736263996
C         8.10779875665226   -6.02348862994462    5.79589176472612
O         5.98822048348678   -2.89088019381814    4.99875443065549
Si        3.29340682649687   -2.23023713701388    1.93709003688583
Si        3.94070422946409   -5.89635408068589    2.22911810173042
Zr        5.98669814205002   -4.77782431546707    4.97610296391055
H         4.51856703558544   -2.94694209540233   -0.15455784169264
H         4.94435837136169   -1.30499714212747    0.27610363099476
H         3.40878489766469   -1.63612468909647   -0.50365046644400
H         2.48679598221880   -0.49237395295958    3.59154982623969
H         2.21780925094389    0.03783799364741    1.94638567980732
H         3.82167569773186    0.13369495039997    2.63908391489656
H         1.14130652599208   -3.31951227982956    2.68597688244401
H         1.65496981592093   -3.98118280027342    1.15051340727503
H         0.90723168325151   -2.40096095115832    1.21365834494950
H         4.56693081816763   -8.34861017476463    2.33163755345746
H         5.17940363721157   -7.50964433155780    3.74925466446438
H         6.00554348589252   -7.37049395830363    2.19383877789304
H         2.08524815808994   -7.40169259385121    3.07127350658454
H         1.44700415427311   -6.24577747652013    1.92689686363504
H         1.79475191708127   -5.74447060248176    3.56576990036948
H         3.72967671938030   -6.77084599961263   -0.12461421258448
H         4.99192377134437   -5.56089996875313   -0.04047865966910
H         3.31239069965046   -5.06930687185497   -0.08230636160058
H         4.63826352386074   -1.46935323085019    4.45062891872067
H         6.72137784503092   -3.32036236426446    1.97759409760737
H         8.44790662139752   -2.24353996313129    0.56781972043334
H         8.96481537716787    0.15084563555093    0.85953411312354
H         7.77660174756954    1.46063475865338    2.57958891795671
H         6.08290575377425    0.38049537100813    4.00206169772453
H         2.87830352436895   -4.17086003956378    5.79358485931691
H         3.39833792873024   -6.75566407117312    5.33516813816432
H         5.53360835768899   -7.44904266018856    6.79179794042603
H         6.31149039149132   -5.28780261128256    8.18722488876830
H         4.66632900263386   -3.27451354682457    7.57392344877969
H         8.85073781733868   -4.01588523331119    6.41081724268628
H         8.66154913671873   -3.41116226716433    3.82039622524917
H         7.85075827481731   -5.61003020905655    2.50532697071306
H         7.58695561331924   -7.58323793182902    4.30934496921383
H         8.21875253281431   -6.60322657290929    6.70380785518317

