37
CSD_code = ZUXRAL | q = 1 | S = 0 | Stoichiometry = C12H21N2OPt(1+) | MND = 4
Pt        2.28784960814771    1.11301076537960    2.11643965158988
O         2.36743725718089    2.41096853182778    4.12580484631215
N         3.13888369556176   -0.70129408068973    2.75977632315668
N         1.42670418690147    2.61440998798809    0.96424759933523
C         2.26014089154226    0.16891252633484    0.42047846394225
C         1.55730896070507    0.73800130058754   -0.62707774466941
C         1.56168519365660    0.07421464118344   -1.84586913510118
C         2.25449428990817   -1.12383017399459   -1.96309268151621
C         2.95497129801010   -1.67741852185522   -0.89921888007859
C         2.96774878079316   -1.01542319208585    0.32040236667568
C         3.72191837680697   -1.39793398849573    1.57039201051392
C         4.15357748445019   -0.59566556263327    3.81028466105311
C         2.00141631098142   -1.49163396814597    3.25330119860782
C         0.82897629362854    2.00991738263022   -0.26789513701572
C         2.55775437726434    3.46840418432278    0.57805384296347
C         0.42281486115554    3.41630555189559    1.66472688797953
H         1.03157617946271    0.47761832786904   -2.69488875618177
H         2.25105869548509   -1.63898421774842   -2.91083115192545
H         3.48738177828556   -2.60732220567327   -1.02733283586353
H         3.72603058217834   -2.48019826811651    1.73961555577042
H         4.76001675050406   -1.07055305440357    1.45691927159580
H         4.96084132894123    0.06133861943348    3.48403811397539
H         4.57682475561405   -1.57721226130025    4.04791749690638
H         3.70750098543755   -0.19308347809089    4.72033862081936
H         1.28589202141275   -1.64727115187780    2.44525215979543
H         1.50403209981215   -0.97059877605270    4.07331871567362
H         2.33742615330491   -2.46788140292716    3.61804675154610
H         1.69351850417827    2.24679735952200    4.79027898973964
H         0.84106359653645    2.74052615834371   -1.08374089644896
H        -0.21521913934188    1.76001890446142   -0.05630487401154
H         3.27557375900173    2.88742680481676   -0.00292828563763
H         3.04969159150505    3.86001210328238    1.46983836435055
H         2.21631953962003    4.31363163966213   -0.02831832873014
H        -0.39125191946928    2.77630484095706    2.00687149267237
H         0.01029262886289    4.19000780298105    1.00938003669873
H         0.87929987733310    3.90204122004493    2.52702353002722
H         3.21624836464132    2.48723565056784    4.57025175547906

