62
CSD_code = ZUXRIT | q = 0 | S = 0 | Stoichiometry = C28H30NOPPd | MND = 4
Pd        6.09667141613774    0.87324898202451    4.10156530116997
P         6.86931589679302    2.92169903777577    3.77114951494710
O         5.45570545327063   -1.04603898012118    4.43750642772736
N         8.14366809342311    0.10629985401337    3.30660583737534
C         7.94618420287217   -0.62044904399673    2.05547417847028
C         8.48021377149810   -0.82707695746772    4.38255564873762
C         9.24385815850081    1.06804948861514    3.15908652749939
C         8.98283795945584    2.14288298848686    2.13739827852907
C         9.77716242819086    2.22262857066976    1.00276420542348
C         9.57669935701785    3.21380147264315    0.05691778438080
C         8.56650628300799    4.14145951169616    0.23774577441424
C         7.76362152019546    4.07471243085907    1.36226283016787
C         7.96674128479981    3.08971156032010    2.32383853691636
C         5.70221605576849    4.29754243901797    3.55222022110228
C         4.57514349186244    4.00020082546305    2.78755811094060
C         3.61895691774119    4.96837899271578    2.55127187450832
C         3.77618771398973    6.23691703927197    3.08944808111408
C         4.88428228655030    6.53001036693851    3.86694385278982
C         5.84899461401823    5.56471966896097    4.10197434231974
C         7.94408261720824    3.41859465042952    5.15246164900438
C         8.90044009371388    4.42536405360204    5.06692077617974
C         9.68004309360046    4.72506388489687    6.17017776104956
C         9.51347711715971    4.02215642639631    7.35332887940186
C         8.57281255768170    3.00709181800628    7.43642603948872
C         7.79079279237315    2.70116999306963    6.33724818368043
C         4.38412482306137    1.45198729029446    5.08217616768605
C         4.75012077130431   -1.52085116021127    3.45350016154751
C         4.47414298611222   -0.79227253982159    2.27315902667894
C         3.73628921795157   -1.34594707751311    1.24775211024559
C         3.25008965218952   -2.63954416782497    1.34220762577638
C         3.51262169845795   -3.37457394764127    2.48859931097051
C         4.24500550504853   -2.83628983797061    3.52247688988106
H         7.67207857181508    0.07920515022992    1.26282940079998
H         7.14229650130626   -1.34854518255598    2.17560028547839
H         8.86185648458112   -1.15226422704111    1.75502199423623
H         8.60832347078496   -0.27555183489923    5.31976401323624
H         9.40808266491178   -1.37525203225686    4.16000826493274
H         7.66315055004988   -1.54098201310083    4.50863707408848
H        10.16642062021105    0.52948457724986    2.88035944333692
H         9.41155353531256    1.54215718819969    4.13459678127750
H        10.56577665859603    1.49780477304340    0.85560259090148
H        10.20633407416521    3.25772221072094   -0.81890853107236
H         8.40104842762887    4.91677160985196   -0.49535051148037
H         6.97267392976801    4.79818462457854    1.49950150316944
H         4.46018837401255    2.99316257845906    2.39690093516444
H         2.74800163538711    4.73652512785953    1.95646728863930
H         3.02863137575278    6.99545226761677    2.91030424571178
H         4.99821740124014    7.51540429859544    4.29505073193682
H         6.70747417885948    5.79469551337029    4.71682427939837
H         9.03812124283236    4.95972400264241    4.13604078258779
H        10.42215725261198    5.50763819776845    6.10714636904243
H        10.12513858282162    4.26192259894363    8.21049287168156
H         8.45424252249130    2.45395735929980    8.35645736856089
H         7.05256327480417    1.89426676681538    6.37267281283448
H         3.52390746891486    1.26130735918447    4.43124939761464
H         4.37958863447382    2.50391319704000    5.39136334563336
H         4.30837930862700    0.80911418507103    5.96622308596211
H         4.85621855105712    0.24171707624806    2.18011445865900
H         3.53841561325185   -0.76087869913734    0.35834094575797
H         2.67378340799459   -3.06821877238816    0.53558169632608
H         3.13674971976833   -4.38545943292644    2.57581449840186
H         4.44641613501283   -3.40992610209357    4.41637066705151

