72
CSD_code = ZUXTOB | q = 0 | S = 0 | Stoichiometry = C18H45ClN4Si3Ti | MND = 5
Ti        2.42898118581008   15.65545952974314    3.58051372917179
Cl        2.91608308150483   17.77798563820027    4.02789310819125
Si       -0.44159568941455   17.04869915257193    3.87643178157354
Si        4.11288017390361   15.48928376393888    6.30313481305282
Si        4.10981948097933   16.60508400990253    1.02061632790779
N         0.63041941742218   15.95428404735306    3.08263850894826
N         2.79578365536824   14.98526983549254    5.30911576502243
N         3.72272776247554   15.42869033720166    2.22186196333260
N         1.90354558686192   13.35657696792297    3.09377080673101
C         0.30253249921631   15.57782067084351    1.72417440485269
C         0.00031063423467   14.08095331659838    1.58287940561969
C         1.25887266297108   13.24061664166024    1.77722151946700
C         0.01569985088210   17.35600716204916    5.70815404467204
C        -0.52460985838785   18.75615894712585    2.99567149748592
C        -2.22841194448053   16.32642010064064    3.85765386134318
C         1.67006181598133   14.36310638911804    5.97275921679075
C         1.46896891342746   12.90275847843409    5.55010752380069
C         0.98893916831872   12.80614337444288    4.10514165366191
C         5.59566188251586   16.16780085844987    5.30329692794948
C         4.76357091825721   13.98729807641490    7.32075526008124
C         3.58933700482854   16.83484922591673    7.57336582285095
C         4.71379195054136   14.40808972047773    2.48766336141204
C         4.22196209916070   13.00034865231361    2.12961311201725
C         3.12483926270715   12.53752415307246    3.08341980593278
C         2.67627356165781   17.82030662892284    0.66449301389030
C         5.65912834761993   17.64189272005061    1.49234844766528
C         4.51900713868403   15.71717774133078   -0.64059154676450
H        -0.57173731808694   16.13332464245683    1.35832367830101
H         1.14454470529200   15.80980993116628    1.05412683644990
H        -0.79457786104758   13.80367569037532    2.27730606743134
H        -0.36760471061232   13.88915975896820    0.57111841825934
H         1.97888108911100   13.57578977445796    1.02653134821228
H         1.01877574034856   12.17787993568836    1.58314956117334
H        -0.55062860448595   16.72822330115441    6.38981331661634
H         1.07607537027181   17.20355716096567    5.89055521091212
H        -0.21018790649607   18.38648695388810    5.96084337387761
H         0.42657500386421   19.27462714030552    3.08447876666225
H        -0.74856458709102   18.65406471341448    1.93686773930759
H        -1.29018017382074   19.39121002227363    3.43060948125552
H        -2.91801466903241   17.00635509161129    4.34510589970220
H        -2.58551525123249   16.17545232448095    2.84386980271698
H        -2.29243879410618   15.37228934080346    4.37380548726880
H         1.79167172404353   14.38363415721994    7.06434628928540
H         0.74340887155484   14.90699193371568    5.73378746272507
H         2.39187524220403   12.34522060560472    5.71844729952641
H         0.69658821048053   12.45538256653814    6.18183974551825
H         0.05434698951602   13.36948488681051    4.04669927435371
H         0.77579311274475   11.74737175421073    3.86370699988041
H         5.63761662033282   14.59505654742140    1.92338135240571
H         4.97526982861074   14.40530050851796    3.55692801425142
H         3.89966131674709   12.98217836486877    1.08714612285101
H         5.05599629694208   12.29975986702726    2.22642690131342
H         3.55059621603358   12.56762897359795    4.08946583470161
H         2.85711525106422   11.49007146572308    2.84703759622185
H         2.00478635341841   17.91351142168828    1.51371836924868
H         3.08713175233800   18.80502452531648    0.46905541717925
H         2.09771235270776   17.53590802256877   -0.20947134489345
H         6.50412205380460   17.00941430699734    1.75232812083444
H         5.97234180589910   18.28395382565457    0.67492614573169
H         5.44433261890984   18.27551230976735    2.34897700580135
H         3.67714808447936   15.14356839806727   -1.01902876813531
H         4.78738712703997   16.44079760590176   -1.40206010603646
H         5.35734523383645   15.03639296791508   -0.53159944731248
H         6.05667123763329   16.97689443462519    5.85962767937376
H         6.36278383579303   15.41754839424483    5.13575243344792
H         5.28524700247905   16.57166712131268    4.34334007412566
H         3.98744122635475   13.56984651325138    7.95437287401623
H         5.13327325317017   13.18783158929603    6.68430062712889
H         5.57929109531684   14.29144083811021    7.96697071077090
H         4.38395176151697   17.04417761181368    8.28277154079640
H         3.34646960311461   17.76324199405153    7.06297312918808
H         2.71464132595658   16.53227456588698    8.14352352089220

