54
CSD_code = ZUXWOG | q = 1 | S = 0 | Stoichiometry = C23H22N5O3Pt(1+) | MND = 4
C        15.12113836558276    6.83886260534179    3.09980211492478
H        14.54086183685065    7.30454327841866    2.31553175744993
C        15.06255416083267    5.46747906394728    3.29614940768971
H        14.43343456644172    4.86126119016129    2.66532243812897
C        15.81828974574974    4.90374167578206    4.31111602953334
H        15.79057372201827    3.84174370900669    4.49734543362302
C        16.61772985482003    5.73109834124858    5.08457267437936
H        17.22096416748740    5.31873208436249    5.87653451688368
C        16.63380572175774    7.09816361944742    4.83474972509683
C        17.45317743517659    8.05635853061271    5.59277537514902
C        18.32858576288339    7.79322088540489    6.64302897209814
H        18.48361181465448    6.79002070150703    7.00271660231598
C        19.00314183782515    8.85765252524470    7.22696399640698
H        19.68609144988799    8.67449521143609    8.04134294303126
C        18.80171080747161   10.15624715210665    6.77747721490797
H        19.31949955233969   10.97832974791615    7.24217662343979
C        17.91528247913397   10.36430595504485    5.72429967984598
C        17.53629066069043   11.63784597357526    5.09371606744787
C        18.09151809865245   12.86461323781376    5.43644950571437
H        18.84323165679753   12.92140740324292    6.20650726183570
C        17.67771521121335   14.01134962559139    4.77585081349067
H        18.10180490913083   14.97005490057647    5.02951837695603
C        16.71694580659187   13.89805621341074    3.78446660776730
H        16.37012418140782   14.76173059318793    3.24125559165889
C        16.20075039913369   12.64468249863646    3.49106562210494
H        15.46077531024098   12.52197179247975    2.71318099741139
C        13.37025335230558    9.61883759571317    2.75209993319508
C        12.58847250974173   10.02279589702091    0.45489713313973
C        13.98854395988652   10.46330892968332    0.05674457239535
C        15.02138272791308   10.35985214185785    1.15937545438941
C        14.45793427428001    9.57996919390359   -1.12118015443517
H        13.70818818780518    9.64238665584268   -1.91052178899833
H        15.40052238752932    9.98161435787305   -1.49396204435660
C        14.65002200305349    8.12462191006785   -0.70963261978698
H        14.95060651089452    7.53555731745875   -1.57195058939848
H        13.72234295698843    7.70599966349760   -0.32142195309945
H        15.42862016962806    8.03802659447851    0.04781759602601
C        13.90867745593961   11.93868150953063   -0.40410730310080
H        14.92913709423739   12.28750783808234   -0.57349655650166
H        13.36858288160813   11.97308390117517   -1.35061885167675
C        13.20053114000447   12.83663959197836    0.60484838884762
H        13.28962106578664   13.87622433676509    0.30020452866869
H        13.62588079756635   12.73369259707654    1.60268452992459
H        12.14209955837266   12.59290458882952    0.66092631590024
N        15.87283224325495    7.63887782116393    3.84623933854386
N        17.29003059102894    9.31699879433946    5.17239627707924
N        16.58896550352843   11.54342102121679    4.12175902585238
N        14.62947980497111    9.95765165091428    2.38947158798654
N        12.39562736467373    9.69129368134807    1.78530833460453
H        11.45314718522017    9.43191855661337    2.05888586752709
O        13.15549304615366    9.24293985019551    3.89420211239516
O        11.67342451230947    9.96273455565496   -0.32171338226306
O        16.20716148392958   10.61681738084685    1.00399869199354
Pt       16.02840971661860    9.64467355136565    3.79212920585614

