45
CSD_code = ZUXZIB | q = 0 | S = 0 | Stoichiometry = C13H26Cl2N2SiZr | MND = 9
Zr       -0.90091110290035   10.98823243098363    7.57711035914853
Cl       -2.89910832669715   12.20989214321250    8.08659179700564
Cl        0.48606564836286    9.43108625712721    8.71579025898907
Si       -1.83909540584039    9.92910734863213    4.92194244155623
N        -1.98266917820144    9.57293934263259    6.60237176427284
N        -0.35488891728960   12.22881905352925    9.54045999954064
C        -0.49940402109499   11.25033895984167    5.23349898966258
C        -0.79846445207339   12.56165195782763    5.68993479878004
C         0.26341084667864   13.02378960435786    6.49287399544445
C         1.23936627125597   11.99881120260514    6.54976656325045
C         0.76578989935100   10.91162981332998    5.79206906150212
C        -3.36924521363624   10.74963894825311    4.09990395520535
C        -1.20644077188577    8.52951925347541    3.77249791321094
C        -2.74269869663562    8.51833247670547    7.24532203131767
C        -4.11591289899649    8.33925490900800    6.58207312503566
C        -2.96192280522314    8.89098041525514    8.72919219342703
C        -1.95080375252107    7.19968327838432    7.17340680389735
C        -1.01508116389190   11.55929299677475   10.67160304146967
C         1.04728749995073   12.50558943331069    9.87240338764052
H        -0.84002336124538   13.12505285864222    9.40428313029520
H        -1.66388337851243   13.14376092615570    5.39469075351672
H         0.38063327357040   14.03738474862623    6.86337698730508
H         2.23164904414453   12.08149083907388    6.97799693273720
H         1.31357938884218    9.99717790954811    5.58992372855268
H        -3.08400395867249   11.32350928354624    3.22449718022854
H        -3.86383830947036   11.42346551478285    4.79419987380717
H        -4.09698422640293   10.01062037087245    3.78265095414659
H        -0.93190100793098    8.92212935972852    2.79984329472153
H        -1.97364275770886    7.77874301094314    3.61575622457455
H        -0.33609813432789    8.03315852861516    4.18944974578779
H        -4.64325409093678    9.29046952253066    6.58012976946518
H        -4.70831466055559    7.60324341341624    7.12036207086234
H        -3.99230040947324    8.00817164296650    5.55486349869465
H        -3.54942856596076    9.80965924645308    8.79808221827779
H        -1.99712673783297    9.01848119442022    9.23454289814391
H        -3.50963628729978    8.09560037463223    9.23321392266371
H        -0.96202302825347    7.34436629592947    7.60808335116112
H        -1.83226659348323    6.89962743546877    6.13575853549876
H        -2.46469251023848    6.40871981207717    7.71462541363972
H        -0.90428426494756   12.13877903913900   11.59869632077831
H        -0.55620878240964   10.57751069906559   10.82185615607381
H        -2.08209560859861   11.44484221800061   10.45878591333309
H         1.13886655684493   13.01151891690820   10.84286666758122
H         1.49763981421493   13.14087091861822    9.10930779575985
H         1.59116513796729   11.55895609452870    9.92164418193495

