79
CSD_code = ZUYGAB | q = 0 | S = 0 | Stoichiometry = C20H52HgSi6 | MND = 2
Hg       -0.00019961609049    9.72605709454519   16.13783213502241
Si        0.90226026109154   12.39948985128891   14.07139562537832
Si        2.10277367377993    9.52818027659600   13.18639999836241
Si       -1.03759901578776   10.17030292513781   12.76838719725693
C         0.57480717680629   10.53953368368589   13.73376292791462
C        -0.28469942613104   13.07654761141243   15.42301715857877
C         0.65459612184724   13.41732506860404   12.47044374253985
C         2.68876511584456   12.77376808724567   14.63263116372293
C         3.43437281157255    9.39712438229596   14.56038109177281
C         2.93984499359553   10.29649077223896   11.64808122024189
C         1.66074131809039    7.72208473095293   12.74207142706331
C        -1.73288122576771    8.41040536806260   13.08524616632927
C        -2.48327401991406   11.32744962900217   13.24707000964223
C        -0.78018676937922   10.32123398945338   10.87980821108679
H        -0.59224695631430   14.09018237480081   15.16620381311336
H        -1.19561060892409   12.48332196995841   15.38996374797440
H         1.26568796829142   13.02644789695515   11.66450624337401
H         0.93445550933092   14.45582714445047   12.61989429530107
H        -0.37703961747854   13.39896652707923   12.13878388344992
H         2.99905025574515   12.14202292394837   15.45627595815788
H         2.77389743581930   13.80450573669738   14.96255912446081
H         3.39555384675047   12.62939533537914   13.82381186366570
H         4.11733041631815   10.23783708400126   14.53661794723819
H         4.02642161041054    8.49551310847631   14.43651939966484
H         2.99387974728514    9.35940758852251   15.55594479623954
H         3.29506145705145   11.30026312791379   11.85293167953466
H         2.25196135006549   10.35747031404985   10.81242732381778
H         3.79266127133980    9.70366862051312   11.33064223589158
H         1.05974638666178    7.66900248527532   11.84187452442285
H         1.10797430605746    7.23771560239545   13.54090821396194
H         2.55993446064275    7.13913679806811   12.56730691285764
H        -1.19710441111708    7.65424589750300   12.52509507303968
H        -2.77541398436538    8.35763899881452   12.78618093116126
H        -1.68601723162697    8.13295739503585   14.13765961873030
H        -2.81066626900903   11.15174045603004   14.26767552479845
H        -3.33814730688230   11.15094694608513   12.60117008429599
H        -2.21837144302542   12.37398551355972   13.16144993991236
H        -0.08299090559165    9.57308198978229   10.51878937029112
H        -0.38904911207021   11.29505904211181   10.60900094951333
H        -1.71578862534070   10.18159637797852   10.34643900078645
C         0.28479356070264   13.07651927484845   16.85246398904772
Si       -0.90220051665791   12.39943772966676   18.20404843118465
C        -0.57476693050944   10.53949608975435   18.54178357372928
Si       -2.10277273174517    9.52817350933991   19.08909213587953
C        -3.43433717277018    9.39707796925437   17.71509739514611
H        -4.11735674327509   10.23772584024488   17.73881608260953
H        -4.02634659228945    8.49544855635637   17.83890576168442
H        -2.99382738039291    9.35939334674050   16.71955324155133
C        -2.93988978110987   10.29648726724201   20.62738750806964
H        -3.29518881294661   11.30022306700069   20.42249814079076
H        -2.25202130295172   10.35756791909607   21.46304913966957
H        -3.79266732077174    9.70362932924457   20.94486848196021
C        -1.66074635162980    7.72208294097029   19.53345424522535
H        -1.05975422970737    7.66899524758245   20.43365418036557
H        -1.10796952258777    7.23773404379674   18.73461314055668
H        -2.55992939703218    7.13911368756055   19.70820357697313
Si        1.03761033508867   10.17022803227662   19.50718585675937
C         1.73290530761905    8.41030313670323   19.19023832240837
H         1.19716018606338    7.65421659425423   19.75059109963384
H         2.77552965854624    8.35770368730864   19.48917342138952
H         1.68582817453162    8.13288445198287   18.13777561181101
C         2.48324202250116   11.32740135147603   19.02848430500802
H         2.81064543303576   11.15171042521874   18.00787983591292
H         3.33810709044506   11.15090698706631   19.67439474953591
H         2.21831472754638   12.37392892246928   19.11411774410665
C         0.78022397510066   10.32122818200118   21.39576159984798
H         0.08299547586978    9.57313471887722   21.75683629029307
H         0.38915232502529   11.29509442982201   21.66652049759839
H         1.71584231204290   10.18156727793736   21.92909711369735
C        -0.65466365241267   13.41732571394128   19.80497969278018
H        -1.26578763096317   13.02642885119612   20.61088195791069
H        -0.93459637991832   14.45580175776849   19.65547879333313
H         0.37694643803244   13.39906099252168   20.13672252090047
C        -2.68870577477217   12.77376051511828   17.64285124272769
H        -2.99905265777158   12.14204291058526   16.81921137175215
H        -2.77382034350032   13.80451112189894   17.31295829607409
H        -3.39544856177743   12.62939079958282   18.45170976271688
H         0.59235954952838   14.09014322201777   17.10930492244185
H         1.19570226622990   12.48328937337092   16.88549543636505

