88
CSD_code = ZUYHOQ | q = 0 | S = 0 | Stoichiometry = C25H50B9O2PRu | MND = 8
Ru        0.91969096897685    0.64348578064190    4.37912336182410
C         2.56178104581988    1.64963418140485    3.31088474397994
C         1.52812847470871    1.03460686726121    2.29001941834569
B        -0.06439831205662    1.54065969627093    2.47200049755344
B         0.04067540730026    2.74599542384449    3.90642390366566
B         1.85587924989313    2.72703199279125    4.40352645238432
B         2.61782987489406    2.23548462630570    1.66539901409851
B         0.94609345648169    2.19890303349798    1.15292848424647
B         0.02138798377478    3.29067179687885    2.19004605441442
B         1.19564714401920    4.00359853250681    3.35553832802490
B         2.79700801758998    3.32762318785287    3.01051679245006
B         1.68984065414070    3.72279122519128    1.67120692265671
C        -1.08765402077430    0.42491413442555    1.98300438682829
C        -2.37109313894434    0.34160968545378    1.62389395486937
C        -3.46218837138868    1.38208849246366    1.56442125262911
C        -3.22336823380146    2.27710688519541    0.34030576217372
C        -4.80786831722945    0.66423812880107    1.39479351320884
C        -3.52613675538652    2.23302388015701    2.83176760555226
C        -1.14917196117592    2.95381011236156    4.94747532294433
C        -1.82241945854148    3.94931318131883    5.53394152515251
C        -1.77344222830025    5.45832563427213    5.42911315978959
C        -0.51886524709089    6.00648348813135    6.11986484624870
C        -3.00097675644525    6.01884679078215    6.16363149044563
C        -1.84036474317116    5.93529948751550    3.97616204010395
C         2.21361546335720    3.14775075849154    5.88971152794931
C         3.18512492477752    3.06952961353678    6.80227525313786
C         4.52901134034824    2.38468660477834    6.84938073121484
C         5.61828633120554    3.46485592550543    6.78501918238805
C         4.75823504478266    1.37645021101956    5.72940201366455
C         4.62250164696408    1.64881754858173    8.19446619518992
C        -0.68167332105607   -0.24015545696884    4.64627856599089
O        -1.64624585143126   -0.82483312054891    4.87764679472441
C         1.02879384845989    0.68383275666901    6.22599489109437
O         1.04141707936088    0.62170813742758    7.37533233700976
P         2.01504231364230   -1.55521224847755    4.27447232897873
C         2.03898367047599   -2.43684375086322    5.88327422867946
C         1.13805818406766   -2.80324480629612    3.24503438923966
C         3.74520411962767   -1.85040140595743    3.70705700795666
H         3.46627601632630    1.06228560226688    3.46978593776572
H         1.79249203314957    0.06445963025819    1.85038194414519
H         3.51351910700068    1.83050230626583    1.01749148309075
H         0.70093039628379    1.83597662515061    0.06169862478346
H        -0.88862466945857    3.91040509960049    1.78346455866107
H         1.12161612754870    5.10663339601582    3.74694994821263
H         3.84782262701944    3.80216073782850    3.24042219669860
H         1.91068445723913    4.59867001394994    0.92007123124347
H        -0.57770791386679   -0.53543446675054    1.84543831295385
H        -2.71555617603980   -0.62826471891599    1.27563012093140
H        -3.22758058108501    1.68067850628510   -0.57000669283026
H        -2.26385261211405    2.77694821275223    0.41936825547390
H        -4.00810116214436    3.02683724902404    0.26467490973862
H        -4.81651903165668    0.06127159395499    0.48834930839477
H        -5.61806675827094    1.38747618887468    1.32867932796253
H        -5.00044497958182    0.01250992017022    2.24484408900000
H        -3.63704242810994    1.59671033652106    3.70644846847594
H        -4.38208580833054    2.90372386302912    2.78640992508168
H        -2.62719287845435    2.82327752153751    2.94974688926248
H        -1.53258165343821    1.99295249385089    5.29438422213019
H        -2.58591104730687    3.63941357566533    6.24192342418574
H        -0.53117213773869    7.09485212590600    6.10973238523494
H         0.37880281374139    5.66474243781446    5.61806499799577
H        -0.48513641884160    5.67287575102237    7.15535993479029
H        -2.98952365789918    5.73181320117441    7.21341692201933
H        -3.91827063987949    5.64472667747793    5.71361026209057
H        -3.01285845679707    7.10574635061248    6.10940332646427
H        -0.96604808736924    5.62268304144705    3.42271959698749
H        -1.90570643667678    7.02143470313479    3.94583895194373
H        -2.72251767633646    5.52375730562217    3.49144787118129
H         1.38143650795235    3.74320470503102    6.26202235932358
H         3.01188837677889    3.59595945299343    7.73684699272602
H         5.49852835434364    4.17552642650688    7.59919922084849
H         5.55239682230112    4.00920999067022    5.84546969109986
H         6.60712035372230    3.01585658258661    6.86168511209396
H         3.92017009243019    0.67853523367469    5.68823642605170
H         5.67210205404875    0.81216241967823    5.91508577083700
H         4.86542230519808    1.89432608136350    4.78152690344297
H         4.51404009858071    2.34484848118621    9.02276973967351
H         5.58428836092662    1.14800592375500    8.29343103900993
H         3.83177483055519    0.90479567519627    8.27173672840382
H         2.66879951384540   -1.89434585190234    6.58681428289517
H         2.41634374158500   -3.45271456846325    5.76680024580289
H         1.02510534722839   -2.46598716209145    6.28249792634156
H         0.09517070552562   -2.84879540716947    3.55582675653456
H         1.59500668499591   -3.78572803388907    3.36192817686675
H         1.17272302876266   -2.51797552042290    2.19445756131803
H         4.44279452004003   -1.32041416581393    4.35291922811396
H         3.87340973761114   -1.49616160136194    2.68467134466439
H         3.96736666883267   -2.91662095526440    3.74078947902523

