61
CSD_code = ZUYNEM | q = 0 | S = 0 | Stoichiometry = C21H34ClFeN3Si | MND = 5
Fe        2.50896709526599    3.20626248077388    1.96860483138868
Si        2.64782388614548    5.49997124467927    0.19742416879473
Cl        2.24408933737714    3.41767909525267    4.11537128642550
N         0.70254573725398    3.53281876851948    1.51179724286025
N         4.56623661095463    2.34396814325411    2.38808131718324
N         1.96911394446650    0.89321679383580    1.88277773345622
C        -0.47492792490575    3.49525966445132    2.11782699974561
C        -1.65769112376944    3.41998297973878    1.40241092275419
C        -1.59566755379629    3.39305274395763    0.01380881049306
C        -0.36372674578722    3.44770260775093   -0.61710948591199
C         0.78663330920241    3.52525033988141    0.16401984043079
C         2.19189696685686    3.69248880560140   -0.19137461239326
C         2.77314149267734    3.03526135731731   -1.33836593974734
C         2.11664475008969    2.04811728105107   -2.09194903374958
C         2.74742457895629    1.39455172113451   -3.13195256136151
C         4.05870151630302    1.69084602509835   -3.46529959411036
C         4.73129388155386    2.65922350395693   -2.73455448926922
C         4.10336966977592    3.31148053077054   -1.69641914764944
C         1.20540179250060    6.42103801840860    1.05584090096940
C         3.01838407565063    6.48711116068466   -1.39922208704147
C         4.08984778287529    5.67551597818334    1.44626385556873
C         3.27210728885393    0.23907806977164    2.03503479139385
C         4.21486084557655    1.02805937693810    2.93400103708438
C         5.32916426298179    2.20557390712463    1.15210463585211
C         5.38943364808476    3.02276577801801    3.38961381495649
C         1.11953566959367    0.60134487512262    3.03709199476707
C         1.31606650355254    0.36287102615891    0.69204882460197
H        -0.45777542114941    3.52789912258747    3.19806525902303
H        -2.60445212111225    3.39431491950186    1.91775778999095
H        -2.50336277271153    3.35096433519270   -0.57050687508108
H        -0.29567043896828    3.47825027151121   -1.69296048996318
H         1.09284177515889    1.79314441982759   -1.86767269661053
H         2.20697849585428    0.64380462875248   -3.69248170563665
H         4.54741471481225    1.17881212838004   -4.28059519797184
H         5.75574270804904    2.90330042207620   -2.98014504401294
H         4.64399347572513    4.05453603360992   -1.13104992579402
H         1.06630614804398    6.05602829837008    2.06912940222967
H         1.40878594310016    7.48582254102781    1.11594164522557
H         0.26551063382066    6.29658953399185    0.52754001779277
H         3.73149847230513    5.98743229445190   -2.04326330146001
H         2.10938394867363    6.63092605490532   -1.97397858451729
H         3.41620961494779    7.46792782881713   -1.16107337215685
H         3.85709882843831    5.13491312408818    2.36698934031402
H         5.03817301082308    5.31798308696957    1.06228501347012
H         4.22062418832410    6.71799009527203    1.71650241793804
H         3.71812630284975    0.13248210668307    1.04482109430981
H         3.14852167684246   -0.77138608043759    2.45639401903660
H         3.73737333652234    1.19993605099992    3.90000681191392
H         5.12723379050051    0.43059945527765    3.09539565627319
H         6.16109264371406    1.49924729861473    1.27133761970282
H         4.68557163940674    1.87461140482891    0.34223197007779
H         5.73764937327607    3.17176750088063    0.87113495877789
H         6.25604386234271    2.41028961456433    3.66991911126151
H         5.74862897647232    3.97155460567683    2.99981367489041
H         4.78443381077488    3.21418272564233    4.27423354999772
H         0.99018067434983   -0.48145298564372    3.16927107127283
H         1.54772880545673    1.03146135847939    3.93737176744411
H         0.14377219853865    1.05612185674707    2.88385352037019
H         1.16832571328750   -0.72357413644741    0.76816456239650
H         0.34338259773452    0.83406347703128    0.56787242810302
H         1.92206209551629    0.57616433042298   -0.18578156611071

