52
CSD_code = ZUYXOG | q = 0 | S = 0 | Stoichiometry = C15H22BMoN7OSe5 | MND = 6
Mo       16.21863850749223    2.86144667280520    7.85858327191278
Se       18.65327046036118    2.35230105682010    7.41982174150201
Se       18.66951409518387    0.02957976881508    7.18388501350573
Se       17.59141873633333   -0.26712442072744    5.13852233264623
Se       15.30614240860359    0.03274571974733    5.48197888744089
Se       15.14179104983062    2.35695162449362    5.63968795947146
B        15.59325334578700    5.72843340086446    9.25508954200072
O        15.82013529641065    0.07476720798077    8.60834117071839
N        14.37462487538880    3.64234617412329    8.59805746795336
N        14.30728656841565    4.91218750145684    9.03991048125146
N        16.58542652503000    4.87213466074351    7.11238383128916
N        16.27431772041683    5.92268580961614    7.90198290262995
N        16.76378115907596    3.59106728996606    9.80027883269014
N        16.49862107130888    4.86476691472273   10.14451794071448
N        15.94661026221090    1.23656895236628    8.38570688037098
C        13.13783627874611    3.13363137812504    8.61644121691513
C        12.25673800905744    4.11484853787595    9.07007255707042
C        13.03456543708208    5.22982235260369    9.33242808740318
C        12.80134162021652    1.75179742951045    8.19741672118451
C        12.60328537458642    6.55681016697845    9.84000261541603
C        17.11755469836149    5.36394632305619    5.98857849629227
C        17.15248950986026    6.75793087090018    6.06938992360075
C        16.60861327561769    7.07844919258967    7.29648933648260
C        17.55811041860384    4.57262348733227    4.80904399554193
C        16.40701179035952    8.42373505148202    7.89273481441756
C        17.45626156177457    3.03179833802095   10.79879653493781
C        17.64862298224412    3.98408607430693   11.79941185890804
C        17.02427029791730    5.13545997581646   11.35137845966356
C        17.93733443947555    1.62939139432211   10.80065471976534
C        16.92231721034656    6.45419326286170   12.02588447381685
H        11.19715035415767    4.02255854055978    9.19184475033807
H        13.49413194961651    1.02960567571651    8.62581022622070
H        11.79147051885982    1.50704169359688    8.51614971305897
H        12.84829166638641    1.66122899850761    7.10766691956878
H        11.52265629597978    6.56752986849905    9.95016595885615
H        13.05781930243669    6.76695576203030   10.80658706300945
H        12.89602939749784    7.34564962419062    9.14974807775756
H        17.52577436594076    7.43353708064759    5.32775717205987
H        17.99677550253844    3.61421498548591    5.08988521279068
H        16.70943492764271    4.37946989082121    4.14892981828902
H        18.29863113663003    5.14191429858984    4.25252187699795
H        15.35357393622673    8.60163934498683    8.10146255780618
H        16.95827687300502    8.51875833303235    8.82622636698176
H        16.75906384322617    9.18084637761672    7.19772528244089
H        18.17034858203420    3.84936031115612   12.72452328635091
H        17.14212668711271    0.93769416653975   10.53009241137238
H        18.75482873949626    1.50325844432737   10.08471482997010
H        18.30819341582388    1.37131593807145   11.78910040187417
H        17.48417289769629    6.42925941100192   12.95528700291216
H        17.32319937920956    7.24198442915869   11.39110096064915
H        15.88411897002845    6.69457204653851   12.24876956585623
H        15.35644627234405    6.76042260934836    9.76805847733319

