78
CSD_code = ZUZJEJ | q = 0 | S = 0 | Stoichiometry = C26H38CoN5O8 | MND = 6
Co       11.29902341739886    6.06023521939420    8.62835387968786
O         9.79965543548867    8.41539811430434    9.35918001622002
H        10.20603538376026    8.57773381956903    8.41324432969645
O        11.66597799270649    3.73191894402210   10.13258558152124
O        12.92254976055126    3.77768988346365    7.94062224379039
H        12.46789613289829    3.58901523580719    8.85501175473089
O        11.03567039208286    8.46041830165479    7.16045765450495
O         9.48734244828704    5.76074889159355    5.47102242356488
O         8.51429861375850    7.04544989437714    7.03077111051088
O         7.44589975117647    3.33728997267778    7.68368943033531
O         8.50548154229516    2.42985381474076    5.92604070463979
N        10.16584557340203    7.14730396059899    9.66397991162554
N        11.07402482557683    4.87399665218981   10.06583922136865
N        12.42912367424084    4.99046671412279    7.57621894911823
N        11.51619623322022    7.26236153530095    7.17221229977261
N        13.01701900378154    6.98128598066011    9.50562195663728
H        13.51282621681971    7.37621414044660    8.70550937977629
H        12.72188445356034    7.77839145302118   10.06974258578173
C         9.74303711219953    6.61058627199664   10.76112956716258
C        10.26566505809799    5.29076523279643   10.99735281645070
C        12.73279847010238    5.47225065984284    6.41671737050727
C        12.21546691162325    6.79274818320285    6.18019070025218
C         8.81777108185933    7.28592298290007   11.71612673726932
H         8.48597425872246    8.23053187294540   11.29375821329161
H         9.31741741390653    7.47353427525337   12.66580242504685
H         7.95510521738461    6.65085071324816   11.90647641288777
C         9.92091939689144    4.48014244980090   12.20539031915556
H        10.53382343433880    3.58131661037441   12.20640021357171
H         8.87177245750487    4.18888358311334   12.17796040647125
H        10.09784210395873    5.04161214018269   13.12126679149135
C        13.56060509289301    4.75036428382235    5.40914680798271
H        13.76390973062664    3.74165267209210    5.75875209823579
H        14.50486029098733    5.26896575536935    5.24772666858027
H        13.02604483234022    4.70945642079304    4.46239834754207
C        12.45067944684878    7.54789473626260    4.91351801246089
H        12.15049999572597    8.58347346819311    5.06168939100833
H        11.84088807459278    7.11855964067063    4.11884174654348
H        13.49612806189976    7.50809606577347    4.61507294194881
C         9.66637864824903    5.17216486282958    7.80232422843773
H         8.87189417678066    5.24087794007051    8.55262427498941
C         9.24066639859007    5.99432561082540    6.63549663086181
C         8.11234611356612    7.96676137643604    6.02042967174058
H         7.51527047293742    7.44661202179589    5.26299280349336
H         9.01854709329217    8.36033823324865    5.53755533786214
C         7.35539189058384    9.07782403105570    6.66924525602708
H         7.77735925336954    9.41141793591086    7.60631731252922
C         6.26986520128379    9.62994249853095    6.16259937268707
H         5.84383798094586    9.29552575553903    5.23065410789958
H         5.76668181870614   10.44575131420754    6.65199292204402
C         9.81813626005161    3.71110983278959    7.38960072045364
H        10.45596718101001    3.59828455915885    6.51404647984852
H        10.21213667152341    3.11071385741369    8.21201693558159
C         8.44800768303610    3.16088786062295    7.04063856906036
C         7.28475265183173    1.88993475314233    5.43351996329637
H         6.61172183011224    1.69533644896712    6.27928368731508
H         7.54722044800700    0.93906341671476    4.95764443616551
C         6.59610761223900    2.78819987945028    4.44783167487042
H         5.66070331451491    2.38338911570089    4.08397131805091
C         7.04444714246945    3.95960826750826    4.04112179452102
H         7.97402737421222    4.37416534115875    4.39461255134661
H         6.49158163691510    4.55419650886913    3.33390153490516
C        13.98711089882385    6.17893661050103   10.28869093517077
H        13.85729361888543    5.12531241160680   10.02245303172954
C        13.71020740412675    6.33561164758716   11.78123683293993
H        12.69151935647378    6.03128208881541   12.00628954170659
H        13.85172388189896    7.36842220324379   12.09567227431823
H        14.39108866653257    5.70821567115452   12.34994894902984
C        15.40499513465854    6.58155770779909    9.95626038705637
C        16.33103219779851    5.62225285125342    9.56928429666679
H        16.02815640709357    4.58737238949802    9.50689851533718
C        17.63071642995499    5.98427352516937    9.26161964866011
H        18.34180100378303    5.22878838212406    8.96261571397766
C        18.01753951693852    7.31163306895185    9.33270014715402
H        19.03092830915601    7.59550848357876    9.09174573665314
C        17.09913939911319    8.27561950161883    9.71224648804579
H        17.39412346822294    9.31302490190772    9.76825229179672
C        15.80064174557080    7.91295268883941   10.02161985214113
H        15.09557441323437    8.67742389787686   10.31852235248449

