25
CSD_code = ZUZLIP | q = 1 | S = 0 | Stoichiometry = C10H11FeO3(1+) | MND = 8
Fe        2.55267362467278    4.92514831666096    8.06629854059645
C         2.54701523033486    6.40749753396648    7.07510457330149
C         3.75701580501137    4.04527299154743    7.09569487231936
C         1.32391605524676    4.05115523509714    7.12104650538295
O         2.54371275189044    7.34271424876233    6.44339348937348
O         4.51156747097502    3.52522063626665    6.43239644259141
O         0.55452619325966    3.53291464138246    6.47353597483851
C         4.00246398325472    5.96272407761666    9.31220987875557
C         3.84611048910253    4.72054586926374    9.97755139770385
C         2.57156415013279    4.19239328293465   10.31799912940126
C         1.29491643821704    4.73126264589667   10.00219596038185
C         1.13567505847250    5.97497194514285    9.34090104217854
C         5.03847399999190    3.85828336125891   10.23203545374862
C         0.10094557882602    3.87824754805054   10.27936062609075
H         3.54059575608593    6.85017228616697    9.72168670696781
H         5.01148247785993    6.17303865063977    8.97362780253777
H         2.57256166772854    3.24108165973588   10.83986335388442
H         1.61366451426249    6.85829283840711    9.74061748023245
H         0.12205567223235    6.19405169299403    9.02224187667665
H         5.39389377087251    4.06799381311867   11.24361754100790
H         4.81017448018950    2.79668208033517   10.17720333690321
H         5.85294212069400    4.08847598790397    9.55009184946880
H        -0.22959580046372    4.08568720740112   11.29980233005016
H        -0.72665651633188    4.11893125039997    9.61717022496539
H         0.31850502748202    2.81494019904990   10.21415361064136

