101
CSD_code = ZUZMUE | q = 0 | S = 0 | Stoichiometry = C46H47BrN3O3Re | MND = 6
Re        0.22559504740487   17.69898666983251    7.21640298060433
Br       -2.08481243147248   16.57351677454374    6.91619807862689
N        -0.58056207204939   18.83922805243210    8.85596169169839
N         0.26500946759512   16.30742086101106    8.95422147033127
N         0.87529525173658   13.39057253888548    7.39238291076138
O        -0.32013028490883   20.05678392553154    5.29254449308953
O         0.82833582343440   15.93304164009353    4.74898307408402
O         3.21238525354541   18.45754430885343    7.36265147573475
C        -0.91942152371285   18.16298934677772    9.90542695289288
C        -0.42679786492650   16.78998828812247   10.01031310299694
C        -0.63173675847758   16.03588214119686   11.16626890218010
H        -1.13173347771429   16.47923968259893   12.01192709099912
C        -0.20131945335223   14.72481774813204   11.20548570022347
H        -0.36874628822359   14.11568170294491   12.08014485845648
C         0.44122401125868   14.21264983649135   10.09304386842910
H         0.77311485948074   13.18819283053899   10.05153984043324
C         0.68512684060739   15.04200877337356    9.00159183978266
C         1.41977436929102   14.43622324404729    7.85591216800042
C        -1.80034831222917   18.67491656360484   10.97474332511387
C        -1.51782593977445   19.84384520400823   11.67218759979289
H        -0.62065869192940   20.40038656095189   11.45314881326546
C        -2.37945173424763   20.29050853763344   12.65756588125366
H        -2.14763633214520   21.19748851934767   13.19526924726586
C        -3.53238207447420   19.58236431926194   12.95147350829977
H        -4.20354085563014   19.93549002676862   13.71974342589668
C        -3.82700423628227   18.42421664493508   12.25050182658751
H        -4.73111235995857   17.87465790694696   12.46468586972784
C        -2.96807472889153   17.96976655090263   11.26780325915370
H        -3.21437750175394   17.08118068273238   10.70420211024627
C         2.72416496772092   15.02351432221920    7.49515366439916
C         3.48664812816146   15.63580824908283    8.49168601415758
H         3.09127529459378   15.72325656012105    9.49537233734145
C         4.75537420390875   16.10484813570920    8.21292072987999
H         5.33955600258414   16.56903867237896    8.99352102650891
C         5.27315064605688   15.98805553614703    6.93383489838544
H         6.26080497548495   16.36456894558566    6.71465276623011
C         4.52351682658589   15.38275813506533    5.93855076262906
H         4.92563181559688   15.28529336252097    4.94133689622422
C         3.26355114276969   14.88821015766088    6.21638138645186
H         2.69330914301429   14.40179870066909    5.44039646657626
C        -0.94155664228533   20.21594667675220    8.76674831262466
C         0.07148645186342   21.17164604176842    8.95013261003544
C        -0.25783608630926   22.51690946644754    8.88190051753134
H         0.51184575505827   23.25788019577687    9.03176632057003
C        -1.55062182720730   22.92495155318539    8.62413933714430
H        -1.78888683136486   23.97659307338358    8.57103063769970
C        -2.53230742289512   21.97806932680418    8.42541493235187
H        -3.53891574210606   22.29706091880252    8.20782403743234
C        -2.25821098664731   20.61875437970718    8.50196325847214
C         1.51480110112048   20.79624964419749    9.20647357206811
H         1.60924368550498   19.70488644534313    9.21593209223629
C         2.38887364392876   21.34020313067197    8.07260664650311
H         3.40416561601683   20.96268692437338    8.16601044963430
H         2.42240064628894   22.42611977559794    8.09669093276569
H         1.99292916881421   21.02797014394578    7.10827914499639
C         2.02062954203094   21.31525227538050   10.55514659430550
H         1.47666156700470   20.86494742619221   11.38370510592730
H         1.91582860467763   22.39492266860271   10.62475892518514
H         3.07336185732093   21.06618236616559   10.67004132817766
C        -3.38184755866365   19.64929747803546    8.22766048416886
H        -3.06622628478680   18.63296597025878    8.46805479710041
C        -4.62036180171727   19.95957756978799    9.07185169772088
H        -4.35325517965252   20.12022508491878   10.11423849542925
H        -5.31563794094756   19.12538884115934    9.01578874926656
H        -5.13242595794821   20.84678523330224    8.70833954755822
C        -3.73709733774439   19.68560578444063    6.73876569819049
H        -2.86552651583593   19.46022176302279    6.12963782129050
H        -4.10818695388257   20.66707452537483    6.45272673645589
H        -4.49942578423716   18.94078014948636    6.52544409284139
C         1.33032976914184   12.52041407384506    6.42411502525050
C         0.50955187964256   12.34167544146324    5.29561899285556
C         0.88256817478043   11.41617268950314    4.33859031040049
H         0.27082500550118   11.28026442672642    3.46080644707234
C         2.02453047005991   10.65047381553443    4.49876696636958
H         2.30562139924311    9.93177452709606    3.74318567016151
C         2.78770374462572   10.78735896671076    5.64103431289531
H         3.65341540751517   10.15673886246788    5.77643472888715
C         2.46623120461428   11.71823914140282    6.61879179871166
C        -0.77804613216158   13.12382727059148    5.18647555687206
H        -0.68912191450181   14.02038082366860    5.80443977549697
C        -1.91509221486872   12.27961209943055    5.76947021587820
H        -1.69457698979893   12.01719628741351    6.80152205451428
H        -2.04302723078177   11.36336614097599    5.19617063709669
H        -2.84336608210805   12.84512219204576    5.74628279891306
C        -1.10998203869639   13.55967737006564    3.76130191428403
H        -0.25076232598167   14.03379088569492    3.29281216919727
H        -1.92724378150901   14.27674483493911    3.78609957496516
H        -1.42135151533666   12.71495007310861    3.15116289435295
C         3.27201879974901   11.76870321554499    7.89777323702282
H         2.94759704545860   12.62535902074329    8.49629710316869
C         3.00671587867641   10.50168601043156    8.71762689770294
H         3.53758246841414   10.54598957993967    9.66689610583390
H         3.33925954002424    9.61906891958371    8.17701207537296
H         1.94189412847016   10.39704775055019    8.91693649863300
C         4.76841401597881   11.93638996312016    7.63045097911436
H         4.94772164244918   12.80703348843018    7.00362699765690
H         5.17813790407845   11.06142390215481    7.13330850749955
H         5.30063330406815   12.07317168808151    8.56988963483979
C        -0.09560673558527   19.16178329151251    5.97277908083137
C         0.67310761253666   16.55055352965636    5.69991424036633
C         2.09214563218135   18.20431422504289    7.36930160740858

