53
CSD_code = ZUZPOZ | q = 0 | S = 0 | Stoichiometry = C20H22N4NiO2S4 | MND = 4
Ni        0.78853871882707   -0.03175834804631    7.46233874526888
S        -1.09383887507588   -0.85033047989365    6.57535390156504
S        -1.84038199494867   -0.70521976221205    3.75827416368636
O         2.19573351403639    6.15772587078637    1.92039770444348
N         0.11396719368046    0.73148337565048    4.81512040332804
N         0.86135031268667    1.08609557847381    5.88994322058828
C        -0.79648952552123   -0.15958783525513    5.03649795302139
C         1.53785362490374    2.19667311030101    5.82002191261526
C         1.64403951075800    3.15872616363198    4.75323435141697
C         2.33927080905649    4.34904050924667    5.03349637397917
C         2.49839709676448    5.31970849307785    4.07807822356857
C         1.97999872856977    5.14193247307324    2.78914336190654
C         1.30012460548954    3.96233151659442    2.49404412946673
C         1.13532174619907    2.99280478300886    3.46251375492901
C         1.71438577054998    6.04077795781092    0.60226823477933
C        -1.24860202316262    0.25969361727019    2.33788131545122
H         2.11366997618344    2.45448706012103    6.70138831667525
H         2.75055602408113    4.50112414294649    6.02036652409865
H         3.02690708980810    6.23506242146925    4.29231820646149
H         0.89574945885861    3.78847150327073    1.50887576774401
H         0.61781024319874    2.08127594711169    3.22263147842160
H         0.62389215893773    5.94996687953436    0.57983780157826
H         2.16263348311555    5.18614013976697    0.08597642893907
H         2.00902579777808    6.96000723096205    0.09879797940188
H        -1.44385058146617    1.31254887462598    2.51506757368205
H        -1.81122258864106   -0.09074543710409    1.47861233207949
H        -0.18845179096760    0.07384099445495    2.19996876423835
S         2.67040395066284    0.78724156428247    8.34970155093549
C         2.37258111071098    0.09700592387604    9.88869285706875
S         3.41682082647041    0.64219690087668   11.16678373406240
C         2.82521533349219   -0.32292335023289   12.58711011218700
H         3.02068338595446   -1.37573027982299   12.40989263678529
H         3.38775418971412    0.02758877541169   13.44639317794009
H         1.76502650850861   -0.13733253316425   12.72505285470795
N         1.46244276740221   -0.79450275392718   10.10991750309562
N         0.71546124654477   -1.14936983670904    9.03492255943625
C         0.03905816520131   -2.25999330221880    9.10478657962572
C        -0.06725642692014   -3.22205365857098   10.17155744575165
C        -0.76274087634124   -4.41221620465244    9.89127503821673
C        -0.92201119117588   -5.38289381848474   10.84665568492779
C        -0.40351219342425   -5.20527277813035   12.13556964535216
O        -0.61940110498501   -6.22107011864353   13.00426738758340
C        -0.13807159202607   -6.10424102809052   14.32241153999629
H         0.95244916729648   -6.01376704363922   14.34488817975007
H        -0.58607888896131   -5.24945012047677   14.83865579090349
H        -0.43302239742458   -7.02336668311393   14.82588779323486
C         0.27667992795490   -4.02585499065188   12.43066853458851
C         0.44162560767765   -3.05631528675978   11.46223437869990
H         0.95936841644737   -2.14491750232976   11.70211203703577
H         0.68122576006442   -3.85216421512683   13.41579439809475
H        -1.45075222162823   -6.29811381458026   10.63241655795708
H        -1.17418974838241   -4.56413357499174    8.90444713552676
H        -0.53684820653328   -2.51772705080786    8.22345596320111

