80
CSD_code = ZUZRER | q = 0 | S = 0 | Stoichiometry = C38H34AgClN2P2S2 | MND = 4
Ag        7.42660895226664    3.44269225494832    4.57975472664291
Cl        8.11846958610873    5.79289687654201    4.82672345214892
S         4.79322887435007    3.61864218165433    5.29254808706371
S         3.56901567550570    6.13782570933684    8.47166812146447
P         7.86286882854103    1.91066143555597    6.64788254348265
P         8.04884006020001    1.83550773104527    2.70302565141124
N         5.49910751361538    5.97469301712530    6.25886434851247
N         2.95581856565696    3.78680726220019    7.50037235818008
C         4.73594195554126    4.90917159077854    6.34999557574309
C         3.72205052064390    4.87480718312122    7.42314703300387
C         6.97392609584135    2.66184579265906    8.04610647392599
C         5.98309671461593    2.01950997150240    8.77765859362952
C         5.34092214691343    2.69418407776439    9.80237620906826
C         5.68388005228726    4.00118174239307   10.10447312771230
C         6.66408251233511    4.64861946094397    9.36740448786544
C         7.29945281190643    3.98690290772809    8.33522495162407
C         7.13777721552857    0.24206001910205    6.56524334070238
C         5.94464155045076    0.10945276484644    5.85902735976840
C         5.32000694412061   -1.11891569550084    5.76949488239525
C         5.89264142866319   -2.23026299520662    6.36719991875065
C         7.08869868073105   -2.10717962166017    7.05391306360929
C         7.71226942515805   -0.87637529926156    7.15790593829080
C         9.50423654183768    1.57515882955904    7.36687213422500
C         9.83067026812217    1.78251164046443    8.70182900489599
C        11.11628208753726    1.52132170288628    9.14344650628897
C        12.07942153964360    1.05616958375570    8.26351075075934
C        11.75854836967754    0.85047122870223    6.93052019370042
C        10.47832096046999    1.11305497139367    6.48468222722871
C         9.86824038872685    1.70260914822652    2.61269455059694
C        10.50691362546182    0.76327620951538    1.80831400455985
C        11.88772221833288    0.72395516544882    1.75897522159615
C        12.63935356360300    1.62096494731464    2.50269657729215
C        12.00844310648372    2.56403499841787    3.29651756367157
C        10.62656348196271    2.60577347542338    3.34945682452040
C         7.51481973291014    0.10071479252916    2.77380714691899
C         8.26369164280641   -0.86400630657754    3.44085880618601
C         7.78737416009394   -2.15671610888894    3.55272583595860
C         6.55610460652665   -2.49420391354656    3.01617561420107
C         5.78941068595928   -1.52884608511798    2.38311312750702
C         6.25918070926604   -0.23449237189971    2.27188951775987
C         7.70975079022562    2.31836621675435    0.97727340682146
C         7.66968264867682    1.42389744663755   -0.08728063801959
C         7.45814788572444    1.89401562272461   -1.37051921312509
C         7.29249010893843    3.25042588270097   -1.60115910137721
C         7.33260363653715    4.14410124047956   -0.54341588711310
C         7.53816801099810    3.67926541546556    0.74221496311071
H         5.37706107772426    6.68565569839294    6.97281062790136
H         6.35636066758602    5.99652128387138    5.66620077634476
H         2.24500155864696    3.71987011369072    8.20793301386908
H         3.09747327163811    3.05161121705728    6.81841760753167
H         5.71272679688375    0.99879900564962    8.54526422165654
H         4.56947299693034    2.19346639903549   10.36998323330087
H         5.17847102748931    4.52337384064538   10.90274554945045
H         6.91968385853743    5.67340629871710    9.59198841329898
H         8.05001436672324    4.49036799952234    7.73686642841271
H         5.50922366370106    0.97966228241697    5.38495139786042
H         4.39024041194966   -1.21215433189377    5.22811751709436
H         5.40806193414738   -3.19274082480336    6.29470134160819
H         7.53727145299067   -2.97418892484521    7.51724804061310
H         8.64224748221164   -0.78433278888399    7.70074245929176
H         9.08431579575884    2.14747539584965    9.39308497164936
H        11.36731908019072    1.68375888102398   10.18156873298876
H        13.08131395579964    0.85877107154759    8.61499256962230
H        12.50785490910744    0.49443797322927    6.23830760474586
H        10.21823483716725    0.97056510723158    5.44329807778537
H         9.92360443410206    0.06138405309298    1.22972463002733
H        12.38139526659560   -0.00835765252710    1.13673637068404
H        13.71794241166559    1.58461773992296    2.45995663198421
H        12.58996094572449    3.26553121871692    3.87565008267791
H        10.11994185636427    3.34032586005190    3.97073615336132
H         9.22367325147731   -0.60383109876855    3.86496549888550
H         8.37856360359845   -2.90314846648891    4.06263293212707
H         6.19014032886638   -3.50679308061714    3.09875001501518
H         4.82190913185818   -1.78670658957419    1.97725627605496
H         5.65957879606903    0.52686533975801    1.79039450542513
H         7.78762053123953    0.36346930512756    0.08612310852907
H         7.42254707870071    1.19787387441377   -2.19608592212142
H         7.12733302277178    3.60941446728017   -2.60624854232619
H         7.19913051015623    5.20094020736753   -0.72023234183777
H         7.56192280441820    4.36773702509266    1.58100863332074

