78
CSD_code = ZUZXOJ | q = 0 | S = 0 | Stoichiometry = C27H38BFN6S4Zn | MND = 4
Zn       -3.07439817455771   -0.21324874489796   -2.71668062493295
B        -3.24558722625175   -2.06180164875427   -5.90634464893084
H        -3.29735927542268   -2.64539006933567   -6.94625000937464
F        -1.13638619081334   -3.04301253891978    3.03489158653028
S        -4.43388346028684   -2.36543244208943   -2.76295056444134
S        -4.08133998343547    0.98853253002288   -4.70908042751972
S        -0.88447854568073   -1.07365826096004   -3.68487774332659
S        -2.77880859090713    1.08805107352319   -0.79516167424290
N        -4.69293793892425   -1.87290624108847   -5.41054537906253
N        -6.56726805594912   -1.62060043496141   -4.28700564277212
N        -2.55644624974241   -0.70707048162128   -6.16950894176430
N        -1.84309981162822    1.37359946263812   -6.21500542332433
N        -2.41836203326419   -2.92829818235360   -4.93280457553912
N        -1.02996785604035   -3.78197199677548   -3.45441778112469
C        -5.25153599408977   -1.92626649947038   -4.19007790589899
C        -5.67493449752775   -1.51403900749676   -6.29124675815151
H        -5.46961630792970   -1.39250099911153   -7.33377563708316
C        -6.82751026492685   -1.35620795480814   -5.60644313297612
H        -7.79086371301683   -1.07522539569538   -5.96980668920909
C        -7.53233863210826   -1.51044235553079   -3.18418661586340
C        -7.05006479592199   -0.43461157625058   -2.20741219681968
H        -6.83364326125756    0.48984060862729   -2.73999066926548
H        -6.14964465606586   -0.75069053452020   -1.68942475084597
H        -7.81739303075291   -0.23971293187461   -1.46384837181366
C        -7.66539988459335   -2.87257388451651   -2.49859532647878
H        -6.70916543206681   -3.19836155960689   -2.10081164013506
H        -8.02131303148035   -3.61911334883325   -3.20599508675071
H        -8.37498634043033   -2.80071506576191   -1.67942003509792
C        -8.89940857022342   -1.09639556788588   -3.73101985419993
H        -8.85436776292069   -0.11707143563668   -4.20138698692688
H        -9.59952351239109   -1.03783438596572   -2.90179147907235
H        -9.28230536153711   -1.82696770934002   -4.44024369819032
C        -2.78139011973692    0.53664697140311   -5.71216192697782
C        -1.69444446946280    2.80697855250773   -5.92597030715040
C        -2.94456935785608    3.54606513719197   -6.40921354737322
H        -2.84103248578239    4.60779898177054   -6.20531692557520
H        -3.82935780304996    3.18074869831652   -5.89715065839856
H        -3.07721532183834    3.40580400883371   -7.48036163827057
C        -0.47603153558491    3.35949107631853   -6.66760813286127
H        -0.39633860355335    4.42247882294218   -6.45597702938122
H        -0.57748527154806    3.24007549613789   -7.74418335646312
H         0.44027923032617    2.88099554341013   -6.33020495095063
C        -1.47920456264256    2.99196376301336   -4.42148194031375
H        -1.22042281290747    4.02545034239666   -4.21062668649319
H        -0.67066803394117    2.35102550082797   -4.07418567594462
H        -2.37596995024027    2.74893131542066   -3.85865730233064
C        -1.46974099279770   -2.63463943132883   -4.02629799822992
C        -2.59380824248205   -4.28438233064416   -4.91251852109273
H        -3.31403731447079   -4.76118586418785   -5.54337360469401
C        -1.74470848131528   -4.81323115345213   -4.00626448962870
H        -1.61275736158259   -5.83464058798967   -3.72617603887936
C        -0.00046150609451   -3.91290719033740   -2.41388643955546
C         0.16712718546677   -5.38439142941104   -2.03190745225378
H        -0.75188201541762   -5.78973619167465   -1.61547466132875
H         0.93902796688599   -5.45655983876522   -1.27038005648770
H         0.48054339815421   -5.98425578052786   -2.88359140483143
C         1.32864047092283   -3.38764201562364   -2.96210790099412
H         1.62804647431704   -3.95736973591562   -3.83981241870778
H         2.09891012639782   -3.48400932187058   -2.20251143941756
H         1.24328502590117   -2.34078059456547   -3.23725900218525
C        -0.44265490744349   -3.13232559713018   -1.17419460639800
H        -1.45091161111854   -3.42301469029341   -0.88625397177441
H        -0.43286593620213   -2.06213557780808   -1.35733511740702
H         0.22852833646172   -3.33898579292508   -0.34588082213836
C        -2.29919306088028   -0.17815154229071    0.32860808079995
C        -3.06629689663280   -1.32540803654807    0.50510753734904
H        -3.96893860235609   -1.46588581030898   -0.07210651863115
C        -2.67883749731790   -2.29072961950762    1.41437723975580
H        -3.26197475873550   -3.18734331899052    1.55660859857675
C        -1.52643647052174   -2.09028111466729    2.15146147564823
C        -0.75829011371958   -0.94933507223008    2.00919896128115
H         0.13163926823134   -0.82128368516578    2.60537404362311
C        -1.15179452643686    0.00801136538555    1.09494080234196
H        -0.57306354116205    0.90834672822226    0.96032128865474
C        -1.00306269985450    0.62268820137285   -6.99527320435582
H        -0.15937731489960    1.02743930220222   -7.50860434872351
C        -1.44599374617275   -0.65215682042147   -6.96560359032954
H        -1.05767111502143   -1.52877408417426   -7.43976565706433

